* Design:	BUFx10_ASAP7_75t_R
* Created:	"Thu Aug 16 2018"
* Vendor:	"Mentor Graphics Corporation"
* Program:	"xACT"
* Version:	"v2017.1_34.33"
* Corner Name: typical_27
* Nominal Temperature: 25C
* Circuit Temperature: 27C
* 
* Integrated TICER reduction is not enabled.
* SHORT DELAY THRESHOLD: 2e-15
* Fill Mode: NG
* PEX REDUCE CC ABSOLUTE : 1
* PEX REDUCE CC RELATIVE : 0.01
* Delta transform mode : 344834

*include "BUFx10_ASAP7_75t_R.pex.netlist.pex"
*BEGIN of ".include "BUFx10_ASAP7_75t_R.pex.netlist.pex"


.subckt PM_BUFx10_ASAP7_75t_R%noxref_6 VSS 1
c1 1 VSS 0.0424279f
.ends

.subckt PM_BUFx10_ASAP7_75t_R%noxref_7 VSS 1
c1 1 VSS 0.0424278f
.ends

.subckt PM_BUFx10_ASAP7_75t_R%noxref_8 VSS 1
c1 1 VSS 0.0423439f
.ends

.subckt PM_BUFx10_ASAP7_75t_R%noxref_9 VSS 1
c1 1 VSS 0.04235f
.ends

.subckt PM_BUFx10_ASAP7_75t_R%Y VSS 78 48 49 63 64 67 68 71 72 75 76 94 95 98
+ 99 102 103 106 107 110 111 32 41 42 2 3 5 6 8 4 10 40 36 37 38 39 35 31 33 34
+ 43 7 9 1
c1 1 VSS 0.0100797f
c2 2 VSS 0.0101267f
c3 3 VSS 0.00989948f
c4 4 VSS 0.00989948f
c5 5 VSS 0.00949839f
c6 6 VSS 0.00949839f
c7 7 VSS 0.00953404f
c8 8 VSS 0.00953404f
c9 9 VSS 0.0096331f
c10 10 VSS 0.0096331f
c11 31 VSS 0.00445444f
c12 32 VSS 0.00434759f
c13 33 VSS 0.00435942f
c14 34 VSS 0.00435596f
c15 35 VSS 0.00434275f
c16 36 VSS 0.0044411f
c17 37 VSS 0.00434122f
c18 38 VSS 0.00434788f
c19 39 VSS 0.00433967f
c20 40 VSS 0.00434773f
c21 41 VSS 0.0499609f
c22 42 VSS 0.0499609f
c23 43 VSS 0.00690023f
c24 44 VSS 0.00338248f
c25 45 VSS 0.00338248f
r1 111 109 0.0308642 $w=8.1e-08 $l=2.5e-09 $layer=P_src_drn $thickness=1e-09
+ $X=0.6650 $Y=0.2025 $X2=0.6625 $Y2=0.2025
r2 10 109 0.179012 $w=8.1e-08 $l=1.45e-08 $layer=P_src_drn $thickness=1e-09
+ $X=0.6480 $Y=0.2025 $X2=0.6625 $Y2=0.2025
r3 40 10 0.179012 $w=8.1e-08 $l=1.45e-08 $layer=P_src_drn $thickness=1e-09
+ $X=0.6335 $Y=0.2025 $X2=0.6480 $Y2=0.2025
r4 110 40 0.0308642 $w=8.1e-08 $l=2.5e-09 $layer=P_src_drn $thickness=1e-09
+ $X=0.6310 $Y=0.2025 $X2=0.6335 $Y2=0.2025
r5 107 105 0.0308642 $w=8.1e-08 $l=2.5e-09 $layer=P_src_drn $thickness=1e-09
+ $X=0.5570 $Y=0.2025 $X2=0.5545 $Y2=0.2025
r6 8 105 0.179012 $w=8.1e-08 $l=1.45e-08 $layer=P_src_drn $thickness=1e-09
+ $X=0.5400 $Y=0.2025 $X2=0.5545 $Y2=0.2025
r7 39 8 0.179012 $w=8.1e-08 $l=1.45e-08 $layer=P_src_drn $thickness=1e-09
+ $X=0.5255 $Y=0.2025 $X2=0.5400 $Y2=0.2025
r8 106 39 0.0308642 $w=8.1e-08 $l=2.5e-09 $layer=P_src_drn $thickness=1e-09
+ $X=0.5230 $Y=0.2025 $X2=0.5255 $Y2=0.2025
r9 103 101 0.0308642 $w=8.1e-08 $l=2.5e-09 $layer=P_src_drn $thickness=1e-09
+ $X=0.4490 $Y=0.2025 $X2=0.4465 $Y2=0.2025
r10 6 101 0.179012 $w=8.1e-08 $l=1.45e-08 $layer=P_src_drn $thickness=1e-09
+ $X=0.4320 $Y=0.2025 $X2=0.4465 $Y2=0.2025
r11 38 6 0.179012 $w=8.1e-08 $l=1.45e-08 $layer=P_src_drn $thickness=1e-09
+ $X=0.4175 $Y=0.2025 $X2=0.4320 $Y2=0.2025
r12 102 38 0.0308642 $w=8.1e-08 $l=2.5e-09 $layer=P_src_drn $thickness=1e-09
+ $X=0.4150 $Y=0.2025 $X2=0.4175 $Y2=0.2025
r13 99 97 0.0308642 $w=8.1e-08 $l=2.5e-09 $layer=P_src_drn $thickness=1e-09
+ $X=0.3410 $Y=0.2025 $X2=0.3385 $Y2=0.2025
r14 4 97 0.179012 $w=8.1e-08 $l=1.45e-08 $layer=P_src_drn $thickness=1e-09
+ $X=0.3240 $Y=0.2025 $X2=0.3385 $Y2=0.2025
r15 37 4 0.179012 $w=8.1e-08 $l=1.45e-08 $layer=P_src_drn $thickness=1e-09
+ $X=0.3095 $Y=0.2025 $X2=0.3240 $Y2=0.2025
r16 98 37 0.0308642 $w=8.1e-08 $l=2.5e-09 $layer=P_src_drn $thickness=1e-09
+ $X=0.3070 $Y=0.2025 $X2=0.3095 $Y2=0.2025
r17 95 93 0.0308642 $w=8.1e-08 $l=2.5e-09 $layer=P_src_drn $thickness=1e-09
+ $X=0.2330 $Y=0.2025 $X2=0.2305 $Y2=0.2025
r18 2 93 0.179012 $w=8.1e-08 $l=1.45e-08 $layer=P_src_drn $thickness=1e-09
+ $X=0.2160 $Y=0.2025 $X2=0.2305 $Y2=0.2025
r19 36 2 0.179012 $w=8.1e-08 $l=1.45e-08 $layer=P_src_drn $thickness=1e-09
+ $X=0.2015 $Y=0.2025 $X2=0.2160 $Y2=0.2025
r20 94 36 0.0308642 $w=8.1e-08 $l=2.5e-09 $layer=P_src_drn $thickness=1e-09
+ $X=0.1990 $Y=0.2025 $X2=0.2015 $Y2=0.2025
r21 10 90 19.3796 $w=1.8e-08 $l=1.8e-08 $layer=V0LISD $X=0.6480 $Y=0.2025
+ $X2=0.6480 $Y2=0.2340
r22 8 88 19.3796 $w=1.8e-08 $l=1.8e-08 $layer=V0LISD $X=0.5400 $Y=0.2025
+ $X2=0.5400 $Y2=0.2340
r23 6 86 19.3796 $w=1.8e-08 $l=1.8e-08 $layer=V0LISD $X=0.4320 $Y=0.2025
+ $X2=0.4320 $Y2=0.2340
r24 4 84 19.3796 $w=1.8e-08 $l=1.8e-08 $layer=V0LISD $X=0.3240 $Y=0.2025
+ $X2=0.3240 $Y2=0.2340
r25 2 82 19.3796 $w=1.8e-08 $l=1.8e-08 $layer=V0LISD $X=0.2160 $Y=0.2025
+ $X2=0.2160 $Y2=0.2340
r26 90 91 5.82974 $w=1.3e-08 $l=2.5e-08 $layer=M1 $thickness=3.6e-08 $X=0.6480
+ $Y=0.2340 $X2=0.6730 $Y2=0.2340
r27 89 90 12.5922 $w=1.3e-08 $l=5.4e-08 $layer=M1 $thickness=3.6e-08 $X=0.5940
+ $Y=0.2340 $X2=0.6480 $Y2=0.2340
r28 88 89 12.5922 $w=1.3e-08 $l=5.4e-08 $layer=M1 $thickness=3.6e-08 $X=0.5400
+ $Y=0.2340 $X2=0.5940 $Y2=0.2340
r29 87 88 12.5922 $w=1.3e-08 $l=5.4e-08 $layer=M1 $thickness=3.6e-08 $X=0.4860
+ $Y=0.2340 $X2=0.5400 $Y2=0.2340
r30 86 87 12.5922 $w=1.3e-08 $l=5.4e-08 $layer=M1 $thickness=3.6e-08 $X=0.4320
+ $Y=0.2340 $X2=0.4860 $Y2=0.2340
r31 85 86 12.5922 $w=1.3e-08 $l=5.4e-08 $layer=M1 $thickness=3.6e-08 $X=0.3780
+ $Y=0.2340 $X2=0.4320 $Y2=0.2340
r32 84 85 12.5922 $w=1.3e-08 $l=5.4e-08 $layer=M1 $thickness=3.6e-08 $X=0.3240
+ $Y=0.2340 $X2=0.3780 $Y2=0.2340
r33 83 84 12.5922 $w=1.3e-08 $l=5.4e-08 $layer=M1 $thickness=3.6e-08 $X=0.2700
+ $Y=0.2340 $X2=0.3240 $Y2=0.2340
r34 82 83 12.5922 $w=1.3e-08 $l=5.4e-08 $layer=M1 $thickness=3.6e-08 $X=0.2160
+ $Y=0.2340 $X2=0.2700 $Y2=0.2340
r35 42 45 4.06404 $w=1.48367e-08 $l=2.45e-08 $layer=M1 $thickness=3.6e-08
+ $X=0.7045 $Y=0.2340 $X2=0.7290 $Y2=0.2340
r36 42 91 7.34548 $w=1.3e-08 $l=3.15e-08 $layer=M1 $thickness=3.6e-08 $X=0.7045
+ $Y=0.2340 $X2=0.6730 $Y2=0.2340
r37 45 80 9.89378 $w=1.47818e-08 $l=4.95e-08 $layer=M1 $thickness=3.6e-08
+ $X=0.7290 $Y=0.2340 $X2=0.7290 $Y2=0.1845
r38 79 80 9.91056 $w=1.3e-08 $l=4.25e-08 $layer=M1 $thickness=3.6e-08 $X=0.7290
+ $Y=0.1420 $X2=0.7290 $Y2=0.1845
r39 78 79 0.582974 $w=1.3e-08 $l=2.5e-09 $layer=M1 $thickness=3.6e-08 $X=0.7290
+ $Y=0.1395 $X2=0.7290 $Y2=0.1420
r40 78 77 1.63233 $w=1.3e-08 $l=7e-09 $layer=M1 $thickness=3.6e-08 $X=0.7290
+ $Y=0.1395 $X2=0.7290 $Y2=0.1325
r41 43 44 9.89378 $w=1.47818e-08 $l=4.95e-08 $layer=M1 $thickness=3.6e-08
+ $X=0.7290 $Y=0.0855 $X2=0.7290 $Y2=0.0360
r42 43 77 10.9599 $w=1.3e-08 $l=4.7e-08 $layer=M1 $thickness=3.6e-08 $X=0.7290
+ $Y=0.0855 $X2=0.7290 $Y2=0.1325
r43 76 74 0.0308642 $w=8.1e-08 $l=2.5e-09 $layer=N_src_drn $thickness=1e-09
+ $X=0.5570 $Y=0.0675 $X2=0.5545 $Y2=0.0675
r44 7 74 0.179012 $w=8.1e-08 $l=1.45e-08 $layer=N_src_drn $thickness=1e-09
+ $X=0.5400 $Y=0.0675 $X2=0.5545 $Y2=0.0675
r45 34 7 0.179012 $w=8.1e-08 $l=1.45e-08 $layer=N_src_drn $thickness=1e-09
+ $X=0.5255 $Y=0.0675 $X2=0.5400 $Y2=0.0675
r46 75 34 0.0308642 $w=8.1e-08 $l=2.5e-09 $layer=N_src_drn $thickness=1e-09
+ $X=0.5230 $Y=0.0675 $X2=0.5255 $Y2=0.0675
r47 72 70 0.0308642 $w=8.1e-08 $l=2.5e-09 $layer=N_src_drn $thickness=1e-09
+ $X=0.4490 $Y=0.0675 $X2=0.4465 $Y2=0.0675
r48 5 70 0.179012 $w=8.1e-08 $l=1.45e-08 $layer=N_src_drn $thickness=1e-09
+ $X=0.4320 $Y=0.0675 $X2=0.4465 $Y2=0.0675
r49 33 5 0.179012 $w=8.1e-08 $l=1.45e-08 $layer=N_src_drn $thickness=1e-09
+ $X=0.4175 $Y=0.0675 $X2=0.4320 $Y2=0.0675
r50 71 33 0.0308642 $w=8.1e-08 $l=2.5e-09 $layer=N_src_drn $thickness=1e-09
+ $X=0.4150 $Y=0.0675 $X2=0.4175 $Y2=0.0675
r51 68 66 0.0308642 $w=8.1e-08 $l=2.5e-09 $layer=N_src_drn $thickness=1e-09
+ $X=0.3410 $Y=0.0675 $X2=0.3385 $Y2=0.0675
r52 3 66 0.179012 $w=8.1e-08 $l=1.45e-08 $layer=N_src_drn $thickness=1e-09
+ $X=0.3240 $Y=0.0675 $X2=0.3385 $Y2=0.0675
r53 32 3 0.179012 $w=8.1e-08 $l=1.45e-08 $layer=N_src_drn $thickness=1e-09
+ $X=0.3095 $Y=0.0675 $X2=0.3240 $Y2=0.0675
r54 67 32 0.0308642 $w=8.1e-08 $l=2.5e-09 $layer=N_src_drn $thickness=1e-09
+ $X=0.3070 $Y=0.0675 $X2=0.3095 $Y2=0.0675
r55 64 62 0.0308642 $w=8.1e-08 $l=2.5e-09 $layer=N_src_drn $thickness=1e-09
+ $X=0.2330 $Y=0.0675 $X2=0.2305 $Y2=0.0675
r56 1 62 0.179012 $w=8.1e-08 $l=1.45e-08 $layer=N_src_drn $thickness=1e-09
+ $X=0.2160 $Y=0.0675 $X2=0.2305 $Y2=0.0675
r57 31 1 0.179012 $w=8.1e-08 $l=1.45e-08 $layer=N_src_drn $thickness=1e-09
+ $X=0.2015 $Y=0.0675 $X2=0.2160 $Y2=0.0675
r58 63 31 0.0308642 $w=8.1e-08 $l=2.5e-09 $layer=N_src_drn $thickness=1e-09
+ $X=0.1990 $Y=0.0675 $X2=0.2015 $Y2=0.0675
r59 44 60 4.06404 $w=1.48367e-08 $l=2.45e-08 $layer=M1 $thickness=3.6e-08
+ $X=0.7290 $Y=0.0360 $X2=0.7045 $Y2=0.0360
r60 7 56 19.3796 $w=1.8e-08 $l=1.8e-08 $layer=V0LISD $X=0.5400 $Y=0.0675
+ $X2=0.5400 $Y2=0.0360
r61 5 54 19.3796 $w=1.8e-08 $l=1.8e-08 $layer=V0LISD $X=0.4320 $Y=0.0675
+ $X2=0.4320 $Y2=0.0360
r62 3 52 19.3796 $w=1.8e-08 $l=1.8e-08 $layer=V0LISD $X=0.3240 $Y=0.0675
+ $X2=0.3240 $Y2=0.0360
r63 1 50 19.3796 $w=1.8e-08 $l=1.8e-08 $layer=V0LISD $X=0.2160 $Y=0.0675
+ $X2=0.2160 $Y2=0.0360
r64 59 60 7.34548 $w=1.3e-08 $l=3.15e-08 $layer=M1 $thickness=3.6e-08 $X=0.6730
+ $Y=0.0360 $X2=0.7045 $Y2=0.0360
r65 58 59 5.82974 $w=1.3e-08 $l=2.5e-08 $layer=M1 $thickness=3.6e-08 $X=0.6480
+ $Y=0.0360 $X2=0.6730 $Y2=0.0360
r66 57 58 12.5922 $w=1.3e-08 $l=5.4e-08 $layer=M1 $thickness=3.6e-08 $X=0.5940
+ $Y=0.0360 $X2=0.6480 $Y2=0.0360
r67 56 57 12.5922 $w=1.3e-08 $l=5.4e-08 $layer=M1 $thickness=3.6e-08 $X=0.5400
+ $Y=0.0360 $X2=0.5940 $Y2=0.0360
r68 55 56 12.5922 $w=1.3e-08 $l=5.4e-08 $layer=M1 $thickness=3.6e-08 $X=0.4860
+ $Y=0.0360 $X2=0.5400 $Y2=0.0360
r69 54 55 12.5922 $w=1.3e-08 $l=5.4e-08 $layer=M1 $thickness=3.6e-08 $X=0.4320
+ $Y=0.0360 $X2=0.4860 $Y2=0.0360
r70 53 54 12.5922 $w=1.3e-08 $l=5.4e-08 $layer=M1 $thickness=3.6e-08 $X=0.3780
+ $Y=0.0360 $X2=0.4320 $Y2=0.0360
r71 52 53 12.5922 $w=1.3e-08 $l=5.4e-08 $layer=M1 $thickness=3.6e-08 $X=0.3240
+ $Y=0.0360 $X2=0.3780 $Y2=0.0360
r72 51 52 12.5922 $w=1.3e-08 $l=5.4e-08 $layer=M1 $thickness=3.6e-08 $X=0.2700
+ $Y=0.0360 $X2=0.3240 $Y2=0.0360
r73 50 51 12.5922 $w=1.3e-08 $l=5.4e-08 $layer=M1 $thickness=3.6e-08 $X=0.2160
+ $Y=0.0360 $X2=0.2700 $Y2=0.0360
r74 41 50 3.03147 $w=1.3e-08 $l=1.3e-08 $layer=M1 $thickness=3.6e-08 $X=0.2030
+ $Y=0.0360 $X2=0.2160 $Y2=0.0360
r75 9 58 19.3796 $w=1.8e-08 $l=1.8e-08 $layer=V0LISD $X=0.6480 $Y=0.0675
+ $X2=0.6480 $Y2=0.0360
r76 49 47 0.0308642 $w=8.1e-08 $l=2.5e-09 $layer=N_src_drn $thickness=1e-09
+ $X=0.6650 $Y=0.0675 $X2=0.6625 $Y2=0.0675
r77 9 47 0.179012 $w=8.1e-08 $l=1.45e-08 $layer=N_src_drn $thickness=1e-09
+ $X=0.6480 $Y=0.0675 $X2=0.6625 $Y2=0.0675
r78 35 9 0.179012 $w=8.1e-08 $l=1.45e-08 $layer=N_src_drn $thickness=1e-09
+ $X=0.6335 $Y=0.0675 $X2=0.6480 $Y2=0.0675
r79 48 35 0.0308642 $w=8.1e-08 $l=2.5e-09 $layer=N_src_drn $thickness=1e-09
+ $X=0.6310 $Y=0.0675 $X2=0.6335 $Y2=0.0675
.ends

.subckt PM_BUFx10_ASAP7_75t_R%A VSS 21 3 4 7 8 10 1
c1 1 VSS 0.00787203f
c2 3 VSS 0.0808778f
c3 4 VSS 0.0808912f
c4 5 VSS 0.00946552f
c5 6 VSS 0.00946552f
c6 7 VSS 0.00306931f
c7 8 VSS 0.00858902f
c8 9 VSS 0.0023029f
c9 10 VSS 0.00858902f
r1 6 9 10.3626 $w=1.39091e-08 $l=4.95e-08 $layer=M1 $thickness=3.6e-08
+ $X=0.0270 $Y=0.1845 $X2=0.0270 $Y2=0.1350
r2 6 10 10.3626 $w=1.39091e-08 $l=4.95e-08 $layer=M1 $thickness=3.6e-08
+ $X=0.0270 $Y=0.1845 $X2=0.0270 $Y2=0.2340
r3 5 9 10.3626 $w=1.39091e-08 $l=4.95e-08 $layer=M1 $thickness=3.6e-08
+ $X=0.0270 $Y=0.0855 $X2=0.0270 $Y2=0.1350
r4 5 8 10.3626 $w=1.39091e-08 $l=4.95e-08 $layer=M1 $thickness=3.6e-08
+ $X=0.0270 $Y=0.0855 $X2=0.0270 $Y2=0.0360
r5 9 25 3.1337 $w=1.54324e-08 $l=1.85e-08 $layer=M1 $thickness=3.6e-08
+ $X=0.0270 $Y=0.1350 $X2=0.0455 $Y2=0.1350
r6 4 19 2.92627 $w=1.245e-07 $l=0 $layer=LIG $thickness=5.2e-08 $X=0.1350
+ $Y=0.1350 $X2=0.1350 $Y2=0.1350
r7 22 23 3.84763 $w=1.3e-08 $l=1.65e-08 $layer=M1 $thickness=3.6e-08 $X=0.0645
+ $Y=0.1350 $X2=0.0810 $Y2=0.1350
r8 21 22 1.86552 $w=1.3e-08 $l=8e-09 $layer=M1 $thickness=3.6e-08 $X=0.0565
+ $Y=0.1350 $X2=0.0645 $Y2=0.1350
r9 21 7 0.23319 $w=1.3e-08 $l=1e-09 $layer=M1 $thickness=3.6e-08 $X=0.0565
+ $Y=0.1350 $X2=0.0555 $Y2=0.1350
r10 7 25 2.3319 $w=1.3e-08 $l=1e-08 $layer=M1 $thickness=3.6e-08 $X=0.0555
+ $Y=0.1350 $X2=0.0455 $Y2=0.1350
r11 17 19 4.08841 $w=2.066e-08 $l=1.25e-08 $layer=LIG $thickness=4.8e-08
+ $X=0.1225 $Y=0.1350 $X2=0.1350 $Y2=0.1350
r12 16 17 8.56549 $w=1.53e-08 $l=1.45e-08 $layer=LIG $thickness=4.8e-08
+ $X=0.1080 $Y=0.1350 $X2=0.1225 $Y2=0.1350
r13 15 16 8.56549 $w=1.53e-08 $l=1.45e-08 $layer=LIG $thickness=4.8e-08
+ $X=0.0935 $Y=0.1350 $X2=0.1080 $Y2=0.1350
r14 13 15 1.60739 $w=1.64167e-08 $l=3e-09 $layer=LIG $thickness=4.8e-08
+ $X=0.0905 $Y=0.1350 $X2=0.0935 $Y2=0.1350
r15 12 13 2.48102 $w=2.2e-08 $l=9.5e-09 $layer=LIG $thickness=4.8e-08 $X=0.0810
+ $Y=0.1350 $X2=0.0905 $Y2=0.1350
r16 12 23 19.3796 $w=1.8e-08 $l=1.8e-08 $layer=V0LIG $X=0.0810 $Y=0.1350
+ $X2=0.0810 $Y2=0.1350
r17 1 12 2.48102 $w=2.2e-08 $l=9.5e-09 $layer=LIG $thickness=4.8e-08 $X=0.0715
+ $Y=0.1350 $X2=0.0810 $Y2=0.1350
r18 1 14 0.425942 $w=1.865e-08 $l=1e-09 $layer=LIG $thickness=4.8e-08 $X=0.0715
+ $Y=0.1350 $X2=0.0705 $Y2=0.1350
r19 3 12 2.66511 $w=1.29895e-07 $l=0 $layer=LIG $thickness=5.22105e-08
+ $X=0.0810 $Y=0.1350 $X2=0.0810 $Y2=0.1350
r20 3 14 0.610027 $w=2.16919e-07 $l=1.05e-08 $layer=Gate_1
+ $thickness=5.5619e-08 $X=0.0810 $Y=0.1350 $X2=0.0705 $Y2=0.1350
r21 3 15 1.79147 $w=1.8466e-07 $l=1.25e-08 $layer=LIG $thickness=5.44e-08
+ $X=0.0810 $Y=0.1350 $X2=0.0935 $Y2=0.1350
.ends

.subckt PM_BUFx10_ASAP7_75t_R%AN VSS 18 19 20 21 22 23 24 25 26 27 151 152 155
+ 156 32 1 33 34 29 13 30 31 12 35 28
c1 1 VSS 0.077079f
c2 12 VSS 0.0154286f
c3 13 VSS 0.0154286f
c4 18 VSS 0.0832548f
c5 19 VSS 0.0829191f
c6 20 VSS 0.0828749f
c7 21 VSS 0.0829995f
c8 22 VSS 0.0828583f
c9 23 VSS 0.0828583f
c10 24 VSS 0.0828799f
c11 25 VSS 0.0828448f
c12 26 VSS 0.0827182f
c13 27 VSS 0.0834143f
c14 28 VSS 0.0124518f
c15 29 VSS 0.0124507f
c16 30 VSS 0.00530332f
c17 31 VSS 0.00530332f
c18 32 VSS 0.0136786f
c19 33 VSS 0.00953077f
c20 34 VSS 0.0098515f
c21 35 VSS 0.0027367f
r1 156 154 0.0308642 $w=8.1e-08 $l=2.5e-09 $layer=P_src_drn $thickness=1e-09
+ $X=0.1250 $Y=0.2025 $X2=0.1225 $Y2=0.2025
r2 13 154 0.179012 $w=8.1e-08 $l=1.45e-08 $layer=P_src_drn $thickness=1e-09
+ $X=0.1080 $Y=0.2025 $X2=0.1225 $Y2=0.2025
r3 29 13 0.179012 $w=8.1e-08 $l=1.45e-08 $layer=P_src_drn $thickness=1e-09
+ $X=0.0935 $Y=0.2025 $X2=0.1080 $Y2=0.2025
r4 155 29 0.0308642 $w=8.1e-08 $l=2.5e-09 $layer=P_src_drn $thickness=1e-09
+ $X=0.0910 $Y=0.2025 $X2=0.0935 $Y2=0.2025
r5 152 150 0.0308642 $w=8.1e-08 $l=2.5e-09 $layer=N_src_drn $thickness=1e-09
+ $X=0.1250 $Y=0.0675 $X2=0.1225 $Y2=0.0675
r6 12 150 0.179012 $w=8.1e-08 $l=1.45e-08 $layer=N_src_drn $thickness=1e-09
+ $X=0.1080 $Y=0.0675 $X2=0.1225 $Y2=0.0675
r7 28 12 0.179012 $w=8.1e-08 $l=1.45e-08 $layer=N_src_drn $thickness=1e-09
+ $X=0.0935 $Y=0.0675 $X2=0.1080 $Y2=0.0675
r8 151 28 0.0308642 $w=8.1e-08 $l=2.5e-09 $layer=N_src_drn $thickness=1e-09
+ $X=0.0910 $Y=0.0675 $X2=0.0935 $Y2=0.0675
r9 13 146 19.3796 $w=1.8e-08 $l=1.8e-08 $layer=V0LISD $X=0.1080 $Y=0.2025
+ $X2=0.1080 $Y2=0.2340
r10 12 142 19.3796 $w=1.8e-08 $l=1.8e-08 $layer=V0LISD $X=0.1080 $Y=0.0675
+ $X2=0.1080 $Y2=0.0360
r11 146 147 3.14806 $w=1.3e-08 $l=1.35e-08 $layer=M1 $thickness=3.6e-08
+ $X=0.1080 $Y=0.2340 $X2=0.1215 $Y2=0.2340
r12 34 147 1.96775 $w=1.63333e-08 $l=1.35e-08 $layer=M1 $thickness=3.6e-08
+ $X=0.1350 $Y=0.2340 $X2=0.1215 $Y2=0.2340
r13 142 143 3.14806 $w=1.3e-08 $l=1.35e-08 $layer=M1 $thickness=3.6e-08
+ $X=0.1080 $Y=0.0360 $X2=0.1215 $Y2=0.0360
r14 33 143 1.96775 $w=1.63333e-08 $l=1.35e-08 $layer=M1 $thickness=3.6e-08
+ $X=0.1350 $Y=0.0360 $X2=0.1215 $Y2=0.0360
r15 31 35 10.3626 $w=1.39091e-08 $l=4.95e-08 $layer=M1 $thickness=3.6e-08
+ $X=0.1350 $Y=0.1845 $X2=0.1350 $Y2=0.1350
r16 31 34 10.3626 $w=1.39091e-08 $l=4.95e-08 $layer=M1 $thickness=3.6e-08
+ $X=0.1350 $Y=0.1845 $X2=0.1350 $Y2=0.2340
r17 30 35 10.3626 $w=1.39091e-08 $l=4.95e-08 $layer=M1 $thickness=3.6e-08
+ $X=0.1350 $Y=0.0855 $X2=0.1350 $Y2=0.1350
r18 30 33 10.3626 $w=1.39091e-08 $l=4.95e-08 $layer=M1 $thickness=3.6e-08
+ $X=0.1350 $Y=0.0855 $X2=0.1350 $Y2=0.0360
r19 35 129 5.11582 $w=1.46667e-08 $l=2.7e-08 $layer=M1 $thickness=3.6e-08
+ $X=0.1350 $Y=0.1350 $X2=0.1620 $Y2=0.1350
r20 27 108 2.66511 $w=1.29895e-07 $l=0 $layer=LIG $thickness=5.22105e-08
+ $X=0.6750 $Y=0.1350 $X2=0.6750 $Y2=0.1350
r21 18 100 2.66511 $w=1.29895e-07 $l=0 $layer=LIG $thickness=5.22105e-08
+ $X=0.1890 $Y=0.1350 $X2=0.1890 $Y2=0.1350
r22 19 92 2.66511 $w=1.29895e-07 $l=0 $layer=LIG $thickness=5.22105e-08
+ $X=0.2430 $Y=0.1350 $X2=0.2430 $Y2=0.1350
r23 20 84 2.66511 $w=1.29895e-07 $l=0 $layer=LIG $thickness=5.22105e-08
+ $X=0.2970 $Y=0.1350 $X2=0.2970 $Y2=0.1350
r24 21 76 2.66511 $w=1.29895e-07 $l=0 $layer=LIG $thickness=5.22105e-08
+ $X=0.3510 $Y=0.1350 $X2=0.3510 $Y2=0.1350
r25 22 68 2.66511 $w=1.29895e-07 $l=0 $layer=LIG $thickness=5.22105e-08
+ $X=0.4050 $Y=0.1350 $X2=0.4050 $Y2=0.1350
r26 23 60 2.66511 $w=1.29895e-07 $l=0 $layer=LIG $thickness=5.22105e-08
+ $X=0.4590 $Y=0.1350 $X2=0.4590 $Y2=0.1350
r27 24 52 2.66511 $w=1.29895e-07 $l=0 $layer=LIG $thickness=5.22105e-08
+ $X=0.5130 $Y=0.1350 $X2=0.5130 $Y2=0.1350
r28 25 44 2.66511 $w=1.29895e-07 $l=0 $layer=LIG $thickness=5.22105e-08
+ $X=0.5670 $Y=0.1350 $X2=0.5670 $Y2=0.1350
r29 130 131 2.2153 $w=1.3e-08 $l=9.5e-09 $layer=M1 $thickness=3.6e-08 $X=0.1890
+ $Y=0.1350 $X2=0.1985 $Y2=0.1350
r30 129 130 6.29612 $w=1.3e-08 $l=2.7e-08 $layer=M1 $thickness=3.6e-08
+ $X=0.1620 $Y=0.1350 $X2=0.1890 $Y2=0.1350
r31 126 127 6.29612 $w=1.3e-08 $l=2.7e-08 $layer=M1 $thickness=3.6e-08
+ $X=0.6480 $Y=0.1350 $X2=0.6750 $Y2=0.1350
r32 125 126 6.29612 $w=1.3e-08 $l=2.7e-08 $layer=M1 $thickness=3.6e-08
+ $X=0.6210 $Y=0.1350 $X2=0.6480 $Y2=0.1350
r33 124 125 6.29612 $w=1.3e-08 $l=2.7e-08 $layer=M1 $thickness=3.6e-08
+ $X=0.5940 $Y=0.1350 $X2=0.6210 $Y2=0.1350
r34 123 124 6.29612 $w=1.3e-08 $l=2.7e-08 $layer=M1 $thickness=3.6e-08
+ $X=0.5670 $Y=0.1350 $X2=0.5940 $Y2=0.1350
r35 122 123 6.29612 $w=1.3e-08 $l=2.7e-08 $layer=M1 $thickness=3.6e-08
+ $X=0.5400 $Y=0.1350 $X2=0.5670 $Y2=0.1350
r36 121 122 6.29612 $w=1.3e-08 $l=2.7e-08 $layer=M1 $thickness=3.6e-08
+ $X=0.5130 $Y=0.1350 $X2=0.5400 $Y2=0.1350
r37 120 121 6.29612 $w=1.3e-08 $l=2.7e-08 $layer=M1 $thickness=3.6e-08
+ $X=0.4860 $Y=0.1350 $X2=0.5130 $Y2=0.1350
r38 119 120 6.29612 $w=1.3e-08 $l=2.7e-08 $layer=M1 $thickness=3.6e-08
+ $X=0.4590 $Y=0.1350 $X2=0.4860 $Y2=0.1350
r39 118 119 6.29612 $w=1.3e-08 $l=2.7e-08 $layer=M1 $thickness=3.6e-08
+ $X=0.4320 $Y=0.1350 $X2=0.4590 $Y2=0.1350
r40 117 118 6.29612 $w=1.3e-08 $l=2.7e-08 $layer=M1 $thickness=3.6e-08
+ $X=0.4050 $Y=0.1350 $X2=0.4320 $Y2=0.1350
r41 116 117 6.29612 $w=1.3e-08 $l=2.7e-08 $layer=M1 $thickness=3.6e-08
+ $X=0.3780 $Y=0.1350 $X2=0.4050 $Y2=0.1350
r42 115 116 6.29612 $w=1.3e-08 $l=2.7e-08 $layer=M1 $thickness=3.6e-08
+ $X=0.3510 $Y=0.1350 $X2=0.3780 $Y2=0.1350
r43 114 115 6.29612 $w=1.3e-08 $l=2.7e-08 $layer=M1 $thickness=3.6e-08
+ $X=0.3240 $Y=0.1350 $X2=0.3510 $Y2=0.1350
r44 113 114 6.29612 $w=1.3e-08 $l=2.7e-08 $layer=M1 $thickness=3.6e-08
+ $X=0.2970 $Y=0.1350 $X2=0.3240 $Y2=0.1350
r45 112 113 6.29612 $w=1.3e-08 $l=2.7e-08 $layer=M1 $thickness=3.6e-08
+ $X=0.2700 $Y=0.1350 $X2=0.2970 $Y2=0.1350
r46 111 112 6.29612 $w=1.3e-08 $l=2.7e-08 $layer=M1 $thickness=3.6e-08
+ $X=0.2430 $Y=0.1350 $X2=0.2700 $Y2=0.1350
r47 32 111 6.17953 $w=1.3e-08 $l=2.65e-08 $layer=M1 $thickness=3.6e-08
+ $X=0.2165 $Y=0.1350 $X2=0.2430 $Y2=0.1350
r48 32 131 4.19742 $w=1.3e-08 $l=1.8e-08 $layer=M1 $thickness=3.6e-08 $X=0.2165
+ $Y=0.1350 $X2=0.1985 $Y2=0.1350
r49 108 127 19.3796 $w=1.8e-08 $l=1.8e-08 $layer=V0LIG $X=0.6750 $Y=0.1350
+ $X2=0.6750 $Y2=0.1350
r50 107 108 2.48102 $w=2.2e-08 $l=9.5e-09 $layer=LIG $thickness=4.8e-08
+ $X=0.6655 $Y=0.1350 $X2=0.6750 $Y2=0.1350
r51 105 107 1.60739 $w=1.64167e-08 $l=3e-09 $layer=LIG $thickness=4.8e-08
+ $X=0.6625 $Y=0.1350 $X2=0.6655 $Y2=0.1350
r52 104 105 8.56549 $w=1.53e-08 $l=1.45e-08 $layer=LIG $thickness=4.8e-08
+ $X=0.6480 $Y=0.1350 $X2=0.6625 $Y2=0.1350
r53 103 104 8.56549 $w=1.53e-08 $l=1.45e-08 $layer=LIG $thickness=4.8e-08
+ $X=0.6335 $Y=0.1350 $X2=0.6480 $Y2=0.1350
r54 100 101 2.48102 $w=2.2e-08 $l=9.5e-09 $layer=LIG $thickness=4.8e-08
+ $X=0.1890 $Y=0.1350 $X2=0.1985 $Y2=0.1350
r55 100 130 19.3796 $w=1.8e-08 $l=1.8e-08 $layer=V0LIG $X=0.1890 $Y=0.1350
+ $X2=0.1890 $Y2=0.1350
r56 97 101 1.60739 $w=1.64167e-08 $l=3e-09 $layer=LIG $thickness=4.8e-08
+ $X=0.2015 $Y=0.1350 $X2=0.1985 $Y2=0.1350
r57 96 97 8.56549 $w=1.53e-08 $l=1.45e-08 $layer=LIG $thickness=4.8e-08
+ $X=0.2160 $Y=0.1350 $X2=0.2015 $Y2=0.1350
r58 94 96 8.56549 $w=1.53e-08 $l=1.45e-08 $layer=LIG $thickness=4.8e-08
+ $X=0.2305 $Y=0.1350 $X2=0.2160 $Y2=0.1350
r59 92 93 2.48102 $w=2.2e-08 $l=9.5e-09 $layer=LIG $thickness=4.8e-08 $X=0.2430
+ $Y=0.1350 $X2=0.2525 $Y2=0.1350
r60 92 111 19.3796 $w=1.8e-08 $l=1.8e-08 $layer=V0LIG $X=0.2430 $Y=0.1350
+ $X2=0.2430 $Y2=0.1350
r61 91 92 2.48102 $w=2.2e-08 $l=9.5e-09 $layer=LIG $thickness=4.8e-08 $X=0.2335
+ $Y=0.1350 $X2=0.2430 $Y2=0.1350
r62 91 94 1.60739 $w=1.64167e-08 $l=3e-09 $layer=LIG $thickness=4.8e-08
+ $X=0.2335 $Y=0.1350 $X2=0.2305 $Y2=0.1350
r63 89 93 1.60739 $w=1.64167e-08 $l=3e-09 $layer=LIG $thickness=4.8e-08
+ $X=0.2555 $Y=0.1350 $X2=0.2525 $Y2=0.1350
r64 88 89 8.56549 $w=1.53e-08 $l=1.45e-08 $layer=LIG $thickness=4.8e-08
+ $X=0.2700 $Y=0.1350 $X2=0.2555 $Y2=0.1350
r65 86 88 8.56549 $w=1.53e-08 $l=1.45e-08 $layer=LIG $thickness=4.8e-08
+ $X=0.2845 $Y=0.1350 $X2=0.2700 $Y2=0.1350
r66 84 85 2.48102 $w=2.2e-08 $l=9.5e-09 $layer=LIG $thickness=4.8e-08 $X=0.2970
+ $Y=0.1350 $X2=0.3065 $Y2=0.1350
r67 84 113 19.3796 $w=1.8e-08 $l=1.8e-08 $layer=V0LIG $X=0.2970 $Y=0.1350
+ $X2=0.2970 $Y2=0.1350
r68 83 84 2.48102 $w=2.2e-08 $l=9.5e-09 $layer=LIG $thickness=4.8e-08 $X=0.2875
+ $Y=0.1350 $X2=0.2970 $Y2=0.1350
r69 83 86 1.60739 $w=1.64167e-08 $l=3e-09 $layer=LIG $thickness=4.8e-08
+ $X=0.2875 $Y=0.1350 $X2=0.2845 $Y2=0.1350
r70 81 85 1.60739 $w=1.64167e-08 $l=3e-09 $layer=LIG $thickness=4.8e-08
+ $X=0.3095 $Y=0.1350 $X2=0.3065 $Y2=0.1350
r71 80 81 8.56549 $w=1.53e-08 $l=1.45e-08 $layer=LIG $thickness=4.8e-08
+ $X=0.3240 $Y=0.1350 $X2=0.3095 $Y2=0.1350
r72 78 80 8.56549 $w=1.53e-08 $l=1.45e-08 $layer=LIG $thickness=4.8e-08
+ $X=0.3385 $Y=0.1350 $X2=0.3240 $Y2=0.1350
r73 76 77 2.48102 $w=2.2e-08 $l=9.5e-09 $layer=LIG $thickness=4.8e-08 $X=0.3510
+ $Y=0.1350 $X2=0.3605 $Y2=0.1350
r74 76 115 19.3796 $w=1.8e-08 $l=1.8e-08 $layer=V0LIG $X=0.3510 $Y=0.1350
+ $X2=0.3510 $Y2=0.1350
r75 75 76 2.48102 $w=2.2e-08 $l=9.5e-09 $layer=LIG $thickness=4.8e-08 $X=0.3415
+ $Y=0.1350 $X2=0.3510 $Y2=0.1350
r76 75 78 1.60739 $w=1.64167e-08 $l=3e-09 $layer=LIG $thickness=4.8e-08
+ $X=0.3415 $Y=0.1350 $X2=0.3385 $Y2=0.1350
r77 73 77 1.60739 $w=1.64167e-08 $l=3e-09 $layer=LIG $thickness=4.8e-08
+ $X=0.3635 $Y=0.1350 $X2=0.3605 $Y2=0.1350
r78 72 73 8.56549 $w=1.53e-08 $l=1.45e-08 $layer=LIG $thickness=4.8e-08
+ $X=0.3780 $Y=0.1350 $X2=0.3635 $Y2=0.1350
r79 70 72 8.56549 $w=1.53e-08 $l=1.45e-08 $layer=LIG $thickness=4.8e-08
+ $X=0.3925 $Y=0.1350 $X2=0.3780 $Y2=0.1350
r80 68 69 2.48102 $w=2.2e-08 $l=9.5e-09 $layer=LIG $thickness=4.8e-08 $X=0.4050
+ $Y=0.1350 $X2=0.4145 $Y2=0.1350
r81 68 117 19.3796 $w=1.8e-08 $l=1.8e-08 $layer=V0LIG $X=0.4050 $Y=0.1350
+ $X2=0.4050 $Y2=0.1350
r82 67 68 2.48102 $w=2.2e-08 $l=9.5e-09 $layer=LIG $thickness=4.8e-08 $X=0.3955
+ $Y=0.1350 $X2=0.4050 $Y2=0.1350
r83 67 70 1.60739 $w=1.64167e-08 $l=3e-09 $layer=LIG $thickness=4.8e-08
+ $X=0.3955 $Y=0.1350 $X2=0.3925 $Y2=0.1350
r84 65 69 1.60739 $w=1.64167e-08 $l=3e-09 $layer=LIG $thickness=4.8e-08
+ $X=0.4175 $Y=0.1350 $X2=0.4145 $Y2=0.1350
r85 64 65 8.56549 $w=1.53e-08 $l=1.45e-08 $layer=LIG $thickness=4.8e-08
+ $X=0.4320 $Y=0.1350 $X2=0.4175 $Y2=0.1350
r86 62 64 8.56549 $w=1.53e-08 $l=1.45e-08 $layer=LIG $thickness=4.8e-08
+ $X=0.4465 $Y=0.1350 $X2=0.4320 $Y2=0.1350
r87 60 61 2.48102 $w=2.2e-08 $l=9.5e-09 $layer=LIG $thickness=4.8e-08 $X=0.4590
+ $Y=0.1350 $X2=0.4685 $Y2=0.1350
r88 60 119 19.3796 $w=1.8e-08 $l=1.8e-08 $layer=V0LIG $X=0.4590 $Y=0.1350
+ $X2=0.4590 $Y2=0.1350
r89 59 60 2.48102 $w=2.2e-08 $l=9.5e-09 $layer=LIG $thickness=4.8e-08 $X=0.4495
+ $Y=0.1350 $X2=0.4590 $Y2=0.1350
r90 59 62 1.60739 $w=1.64167e-08 $l=3e-09 $layer=LIG $thickness=4.8e-08
+ $X=0.4495 $Y=0.1350 $X2=0.4465 $Y2=0.1350
r91 57 61 1.60739 $w=1.64167e-08 $l=3e-09 $layer=LIG $thickness=4.8e-08
+ $X=0.4715 $Y=0.1350 $X2=0.4685 $Y2=0.1350
r92 56 57 8.56549 $w=1.53e-08 $l=1.45e-08 $layer=LIG $thickness=4.8e-08
+ $X=0.4860 $Y=0.1350 $X2=0.4715 $Y2=0.1350
r93 54 56 8.56549 $w=1.53e-08 $l=1.45e-08 $layer=LIG $thickness=4.8e-08
+ $X=0.5005 $Y=0.1350 $X2=0.4860 $Y2=0.1350
r94 52 53 2.48102 $w=2.2e-08 $l=9.5e-09 $layer=LIG $thickness=4.8e-08 $X=0.5130
+ $Y=0.1350 $X2=0.5225 $Y2=0.1350
r95 52 121 19.3796 $w=1.8e-08 $l=1.8e-08 $layer=V0LIG $X=0.5130 $Y=0.1350
+ $X2=0.5130 $Y2=0.1350
r96 51 52 2.48102 $w=2.2e-08 $l=9.5e-09 $layer=LIG $thickness=4.8e-08 $X=0.5035
+ $Y=0.1350 $X2=0.5130 $Y2=0.1350
r97 51 54 1.60739 $w=1.64167e-08 $l=3e-09 $layer=LIG $thickness=4.8e-08
+ $X=0.5035 $Y=0.1350 $X2=0.5005 $Y2=0.1350
r98 49 53 1.60739 $w=1.64167e-08 $l=3e-09 $layer=LIG $thickness=4.8e-08
+ $X=0.5255 $Y=0.1350 $X2=0.5225 $Y2=0.1350
r99 48 49 8.56549 $w=1.53e-08 $l=1.45e-08 $layer=LIG $thickness=4.8e-08
+ $X=0.5400 $Y=0.1350 $X2=0.5255 $Y2=0.1350
r100 46 48 8.56549 $w=1.53e-08 $l=1.45e-08 $layer=LIG $thickness=4.8e-08
+ $X=0.5545 $Y=0.1350 $X2=0.5400 $Y2=0.1350
r101 44 45 2.48102 $w=2.2e-08 $l=9.5e-09 $layer=LIG $thickness=4.8e-08
+ $X=0.5670 $Y=0.1350 $X2=0.5765 $Y2=0.1350
r102 44 123 19.3796 $w=1.8e-08 $l=1.8e-08 $layer=V0LIG $X=0.5670 $Y=0.1350
+ $X2=0.5670 $Y2=0.1350
r103 43 44 2.48102 $w=2.2e-08 $l=9.5e-09 $layer=LIG $thickness=4.8e-08
+ $X=0.5575 $Y=0.1350 $X2=0.5670 $Y2=0.1350
r104 43 46 1.60739 $w=1.64167e-08 $l=3e-09 $layer=LIG $thickness=4.8e-08
+ $X=0.5575 $Y=0.1350 $X2=0.5545 $Y2=0.1350
r105 41 45 1.60739 $w=1.64167e-08 $l=3e-09 $layer=LIG $thickness=4.8e-08
+ $X=0.5795 $Y=0.1350 $X2=0.5765 $Y2=0.1350
r106 40 41 8.56549 $w=1.53e-08 $l=1.45e-08 $layer=LIG $thickness=4.8e-08
+ $X=0.5940 $Y=0.1350 $X2=0.5795 $Y2=0.1350
r107 39 40 8.56549 $w=1.53e-08 $l=1.45e-08 $layer=LIG $thickness=4.8e-08
+ $X=0.6085 $Y=0.1350 $X2=0.5940 $Y2=0.1350
r108 38 103 1.60739 $w=1.64167e-08 $l=3e-09 $layer=LIG $thickness=4.8e-08
+ $X=0.6305 $Y=0.1350 $X2=0.6335 $Y2=0.1350
r109 37 38 2.48102 $w=2.2e-08 $l=9.5e-09 $layer=LIG $thickness=4.8e-08
+ $X=0.6210 $Y=0.1350 $X2=0.6305 $Y2=0.1350
r110 37 125 19.3796 $w=1.8e-08 $l=1.8e-08 $layer=V0LIG $X=0.6210 $Y=0.1350
+ $X2=0.6210 $Y2=0.1350
r111 1 37 2.48102 $w=2.2e-08 $l=9.5e-09 $layer=LIG $thickness=4.8e-08 $X=0.6115
+ $Y=0.1350 $X2=0.6210 $Y2=0.1350
r112 1 39 1.60739 $w=1.64167e-08 $l=3e-09 $layer=LIG $thickness=4.8e-08
+ $X=0.6115 $Y=0.1350 $X2=0.6085 $Y2=0.1350
r113 26 37 2.66511 $w=1.29895e-07 $l=0 $layer=LIG $thickness=5.22105e-08
+ $X=0.6210 $Y=0.1350 $X2=0.6210 $Y2=0.1350
r114 26 39 1.79147 $w=1.8466e-07 $l=1.25e-08 $layer=LIG $thickness=5.44e-08
+ $X=0.6210 $Y=0.1350 $X2=0.6085 $Y2=0.1350
r115 26 103 1.79147 $w=1.8466e-07 $l=1.25e-08 $layer=LIG $thickness=5.44e-08
+ $X=0.6210 $Y=0.1350 $X2=0.6335 $Y2=0.1350
.ends


*
.SUBCKT BUFx10_ASAP7_75t_R VSS VDD A Y
*
* VSS VSS
* VDD VDD
* A A
* Y Y
*
*

MM2 N_MM2_d N_MM2_g VSS VSS nmos_rvt L=2e-08 W=8.1e-08 nfin=3
MM2@2 N_MM2@2_d N_MM0@2_g VSS VSS nmos_rvt L=2e-08 W=8.1e-08 nfin=3
MM3 N_MM3_d N_MM1_g VSS VSS nmos_rvt L=2e-08 W=8.1e-08 nfin=3
MM3@10 N_MM3@10_d N_MM1@10_g VSS VSS nmos_rvt L=2e-08 W=8.1e-08 nfin=3
MM3@9 N_MM3@9_d N_MM1@9_g VSS VSS nmos_rvt L=2e-08 W=8.1e-08 nfin=3
MM3@8 N_MM3@8_d N_MM1@8_g VSS VSS nmos_rvt L=2e-08 W=8.1e-08 nfin=3
MM3@7 N_MM3@7_d N_MM1@7_g VSS VSS nmos_rvt L=2e-08 W=8.1e-08 nfin=3
MM3@6 N_MM3@6_d N_MM1@6_g VSS VSS nmos_rvt L=2e-08 W=8.1e-08 nfin=3
MM3@5 N_MM3@5_d N_MM1@5_g VSS VSS nmos_rvt L=2e-08 W=8.1e-08 nfin=3
MM3@4 N_MM3@4_d N_MM1@4_g VSS VSS nmos_rvt L=2e-08 W=8.1e-08 nfin=3
MM3@3 N_MM3@3_d N_MM3@3_g VSS VSS nmos_rvt L=2e-08 W=8.1e-08 nfin=3
MM3@2 N_MM3@2_d N_MM3@2_g VSS VSS nmos_rvt L=2e-08 W=8.1e-08 nfin=3
MM0 N_MM0_d N_MM2_g VDD VDD pmos_rvt L=2e-08 W=8.1e-08 nfin=3
MM0@2 N_MM0@2_d N_MM0@2_g VDD VDD pmos_rvt L=2e-08 W=8.1e-08 nfin=3
MM1 N_MM1_d N_MM1_g VDD VDD pmos_rvt L=2e-08 W=8.1e-08 nfin=3
MM1@10 N_MM1@10_d N_MM1@10_g VDD VDD pmos_rvt L=2e-08 W=8.1e-08 nfin=3
MM1@9 N_MM1@9_d N_MM1@9_g VDD VDD pmos_rvt L=2e-08 W=8.1e-08 nfin=3
MM1@8 N_MM1@8_d N_MM1@8_g VDD VDD pmos_rvt L=2e-08 W=8.1e-08 nfin=3
MM1@7 N_MM1@7_d N_MM1@7_g VDD VDD pmos_rvt L=2e-08 W=8.1e-08 nfin=3
MM1@6 N_MM1@6_d N_MM1@6_g VDD VDD pmos_rvt L=2e-08 W=8.1e-08 nfin=3
MM1@5 N_MM1@5_d N_MM1@5_g VDD VDD pmos_rvt L=2e-08 W=8.1e-08 nfin=3
MM1@4 N_MM1@4_d N_MM1@4_g VDD VDD pmos_rvt L=2e-08 W=8.1e-08 nfin=3
MM1@3 N_MM1@3_d N_MM3@3_g VDD VDD pmos_rvt L=2e-08 W=8.1e-08 nfin=3
MM1@2 N_MM1@2_d N_MM3@2_g VDD VDD pmos_rvt L=2e-08 W=8.1e-08 nfin=3


*include "BUFx10_ASAP7_75t_R.pex.netlist.pxi"
*BEGIN of ".include "BUFx10_ASAP7_75t_R.pex.netlist.pxi"

*ENDS
*
x_PM_BUFx10_ASAP7_75t_R%noxref_6 VSS N_noxref_6_1 PM_BUFx10_ASAP7_75t_R%noxref_6
cc_1 N_noxref_6_1 N_MM2_g 0.00228545f
x_PM_BUFx10_ASAP7_75t_R%noxref_7 VSS N_noxref_7_1 PM_BUFx10_ASAP7_75t_R%noxref_7
cc_2 N_noxref_7_1 N_MM2_g 0.00228547f
cc_3 N_noxref_7_1 N_noxref_6_1 0.0017741f
x_PM_BUFx10_ASAP7_75t_R%noxref_8 VSS N_noxref_8_1 PM_BUFx10_ASAP7_75t_R%noxref_8
cc_4 N_noxref_8_1 N_MM3@2_g 0.00150899f
cc_5 N_noxref_8_1 N_Y_35 0.000828118f
x_PM_BUFx10_ASAP7_75t_R%noxref_9 VSS N_noxref_9_1 PM_BUFx10_ASAP7_75t_R%noxref_9
cc_6 N_noxref_9_1 N_MM3@2_g 0.00150267f
cc_7 N_noxref_9_1 N_Y_40 0.000828007f
cc_8 N_noxref_9_1 N_noxref_8_1 0.0017721f
x_PM_BUFx10_ASAP7_75t_R%Y VSS Y N_MM3@3_d N_MM3@2_d N_MM3_d N_MM3@10_d
+ N_MM3@9_d N_MM3@8_d N_MM3@7_d N_MM3@6_d N_MM3@5_d N_MM3@4_d N_MM1_d
+ N_MM1@10_d N_MM1@9_d N_MM1@8_d N_MM1@7_d N_MM1@6_d N_MM1@5_d N_MM1@4_d
+ N_MM1@3_d N_MM1@2_d N_Y_32 N_Y_41 N_Y_42 N_Y_2 N_Y_3 N_Y_5 N_Y_6 N_Y_8 N_Y_4
+ N_Y_10 N_Y_40 N_Y_36 N_Y_37 N_Y_38 N_Y_39 N_Y_35 N_Y_31 N_Y_33 N_Y_34 N_Y_43
+ N_Y_7 N_Y_9 N_Y_1 PM_BUFx10_ASAP7_75t_R%Y
cc_9 N_Y_32 N_MM1@4_g 9.97703e-20
cc_10 N_Y_32 N_MM1@10_g 0.000369641f
cc_11 N_Y_41 N_AN_33 0.000186355f
cc_12 N_Y_42 N_AN_34 0.000197238f
cc_13 N_Y_41 N_AN_30 0.000411951f