* Design:	NAND2x1_ASAP7_75t_R
* Created:	"Fri Aug 17 2018"
* Vendor:	"Mentor Graphics Corporation"
* Program:	"xACT"
* Version:	"v2017.1_34.33"
* Corner Name: typical_27
* Nominal Temperature: 25C
* Circuit Temperature: 27C
* 
* Integrated TICER reduction is not enabled.
* SHORT DELAY THRESHOLD: 2e-15
* Fill Mode: NG
* PEX REDUCE CC ABSOLUTE : 1
* PEX REDUCE CC RELATIVE : 0.01
* Delta transform mode : 344834

*include "NAND2x1_ASAP7_75t_R.pex.netlist.pex"
*BEGIN of ".include "NAND2x1_ASAP7_75t_R.pex.netlist.pex"


.subckt PM_NAND2x1_ASAP7_75t_R%noxref_7 VSS 1
c1 1 VSS 0.00570454f
.ends

.subckt PM_NAND2x1_ASAP7_75t_R%noxref_8 VSS 1
c1 1 VSS 0.00471464f
.ends

.subckt PM_NAND2x1_ASAP7_75t_R%A VSS 19 3 4 5 1
c1 1 VSS 0.00708684f
c2 3 VSS 0.0431806f
c3 4 VSS 0.080425f
c4 5 VSS 0.00806292f
c5 6 VSS 0.0135161f
c6 7 VSS 0.00361733f
c7 8 VSS 0.00249676f
r1 6 8 7.44771 $w=1.42162e-08 $l=3.7e-08 $layer=M1 $thickness=3.6e-08 $X=0.0270
+ $Y=0.1720 $X2=0.0270 $Y2=0.1350
r2 5 8 3.2503 $w=1.53684e-08 $l=1.9e-08 $layer=M1 $thickness=3.6e-08 $X=0.0270
+ $Y=0.1160 $X2=0.0270 $Y2=0.1350
r3 8 21 1.38478 $w=1.70909e-08 $l=1.1e-08 $layer=M1 $thickness=3.6e-08
+ $X=0.0270 $Y=0.1350 $X2=0.0380 $Y2=0.1350
r4 4 17 2.68099 $w=1.25e-07 $l=5e-10 $layer=LIG $thickness=5.2e-08 $X=0.1350
+ $Y=0.1350 $X2=0.1350 $Y2=0.1345
r5 19 7 4.5472 $w=1.3e-08 $l=1.95e-08 $layer=M1 $thickness=3.6e-08 $X=0.0700
+ $Y=0.1350 $X2=0.0505 $Y2=0.1350
r6 7 21 2.91487 $w=1.3e-08 $l=1.25e-08 $layer=M1 $thickness=3.6e-08 $X=0.0505
+ $Y=0.1350 $X2=0.0380 $Y2=0.1350
r7 15 17 3.5124 $w=2.166e-08 $l=1.25e-08 $layer=LIG $thickness=4.8e-08
+ $X=0.1225 $Y=0.1345 $X2=0.1350 $Y2=0.1345
r8 14 15 6.64723 $w=1.63e-08 $l=1.45e-08 $layer=LIG $thickness=4.8e-08
+ $X=0.1080 $Y=0.1345 $X2=0.1225 $Y2=0.1345
r9 13 14 6.64723 $w=1.63e-08 $l=1.45e-08 $layer=LIG $thickness=4.8e-08
+ $X=0.0935 $Y=0.1345 $X2=0.1080 $Y2=0.1345
r10 1 9 2.36633 $w=2.3e-08 $l=1e-08 $layer=LIG $thickness=4.8e-08 $X=0.0750
+ $Y=0.1345 $X2=0.0850 $Y2=0.1345
r11 1 10 2.09261 $w=2.04231e-08 $l=6.5e-09 $layer=LIG $thickness=4.8e-08
+ $X=0.0750 $Y=0.1345 $X2=0.0685 $Y2=0.1345
r12 19 1 19.3796 $w=1.8e-08 $l=1.8e-08 $layer=V0LIG $X=0.0700 $Y=0.1350
+ $X2=0.0750 $Y2=0.1345
r13 3 9 1.73446 $w=1.505e-07 $l=4.03113e-09 $layer=LIG $thickness=5.3e-08
+ $X=0.0810 $Y=0.1350 $X2=0.0850 $Y2=0.1345
r14 3 10 1.46074 $w=1.8486e-07 $l=1.251e-08 $layer=LIG $thickness=5.44e-08
+ $X=0.0810 $Y=0.1350 $X2=0.0685 $Y2=0.1345
r15 3 13 1.46074 $w=1.8486e-07 $l=1.251e-08 $layer=LIG $thickness=5.44e-08
+ $X=0.0810 $Y=0.1350 $X2=0.0935 $Y2=0.1345
.ends

.subckt PM_NAND2x1_ASAP7_75t_R%noxref_9 VSS 1
c1 1 VSS 0.00543988f
.ends

.subckt PM_NAND2x1_ASAP7_75t_R%noxref_10 VSS 1
c1 1 VSS 0.00463639f
.ends

.subckt PM_NAND2x1_ASAP7_75t_R%B VSS 18 3 4 1 5
c1 1 VSS 0.0112506f
c2 3 VSS 0.0472567f
c3 4 VSS 0.00984508f
c4 5 VSS 0.0057051f
r1 18 17 0.991056 $w=1.3e-08 $l=4.3e-09 $layer=M1 $thickness=3.6e-08 $X=0.2430
+ $Y=0.1520 $X2=0.2430 $Y2=0.1477
r2 5 13 19.3796 $w=1.8e-08 $l=1.8e-08 $layer=V0LIG $X=0.2430 $Y=0.1350
+ $X2=0.2430 $Y2=0.1350
r3 5 17 2.97317 $w=1.3e-08 $l=1.27e-08 $layer=M1 $thickness=3.6e-08 $X=0.2430
+ $Y=0.1350 $X2=0.2430 $Y2=0.1477
r4 4 13 2.66511 $w=1.29895e-07 $l=0 $layer=LIG $thickness=5.22105e-08 $X=0.2430
+ $Y=0.1350 $X2=0.2430 $Y2=0.1350
r5 12 13 2.48102 $w=2.2e-08 $l=9.5e-09 $layer=LIG $thickness=4.8e-08 $X=0.2335
+ $Y=0.1350 $X2=0.2430 $Y2=0.1350
r6 10 12 1.60739 $w=1.64167e-08 $l=3e-09 $layer=LIG $thickness=4.8e-08
+ $X=0.2305 $Y=0.1350 $X2=0.2335 $Y2=0.1350
r7 9 10 8.56549 $w=1.53e-08 $l=1.45e-08 $layer=LIG $thickness=4.8e-08 $X=0.2160
+ $Y=0.1350 $X2=0.2305 $Y2=0.1350
r8 8 9 8.56549 $w=1.53e-08 $l=1.45e-08 $layer=LIG $thickness=4.8e-08 $X=0.2015
+ $Y=0.1350 $X2=0.2160 $Y2=0.1350
r9 3 1 2.92627 $w=1.245e-07 $l=0 $layer=LIG $thickness=5.2e-08 $X=0.1890
+ $Y=0.1350 $X2=0.1890 $Y2=0.1350
r10 1 7 3.20232 $w=2.13909e-08 $l=1.1e-08 $layer=LIG $thickness=4.8e-08
+ $X=0.1890 $Y=0.1350 $X2=0.1780 $Y2=0.1350
r11 1 8 4.08841 $w=2.066e-08 $l=1.25e-08 $layer=LIG $thickness=4.8e-08
+ $X=0.1890 $Y=0.1350 $X2=0.2015 $Y2=0.1350
r12 3 7 0.905388 $w=2.07755e-07 $l=1.1e-08 $layer=LIG $thickness=5.52727e-08
+ $X=0.1890 $Y=0.1350 $X2=0.1780 $Y2=0.1350
r13 3 8 1.79147 $w=1.8466e-07 $l=1.25e-08 $layer=LIG $thickness=5.44e-08
+ $X=0.1890 $Y=0.1350 $X2=0.2015 $Y2=0.1350
.ends

.subckt PM_NAND2x1_ASAP7_75t_R%NET16 VSS 15 27 28 30 1 2 13 10 11 3 12
c1 1 VSS 0.0080921f
c2 2 VSS 0.00752539f
c3 3 VSS 0.00533166f
c4 10 VSS 0.00342352f
c5 11 VSS 0.00337042f
c6 12 VSS 0.00223029f
c7 13 VSS 0.0220178f
r1 12 3 0.154321 $w=8.1e-08 $l=1.25e-08 $layer=N_src_drn $thickness=1e-09
+ $X=0.2555 $Y=0.0675 $X2=0.2680 $Y2=0.0675
r2 30 12 0.0308642 $w=8.1e-08 $l=2.5e-09 $layer=N_src_drn $thickness=1e-09
+ $X=0.2530 $Y=0.0675 $X2=0.2555 $Y2=0.0675
r3 28 26 0.0308642 $w=8.1e-08 $l=2.5e-09 $layer=N_src_drn $thickness=1e-09
+ $X=0.1790 $Y=0.0675 $X2=0.1765 $Y2=0.0675
r4 2 26 0.179012 $w=8.1e-08 $l=1.45e-08 $layer=N_src_drn $thickness=1e-09
+ $X=0.1620 $Y=0.0675 $X2=0.1765 $Y2=0.0675
r5 11 2 0.179012 $w=8.1e-08 $l=1.45e-08 $layer=N_src_drn $thickness=1e-09
+ $X=0.1475 $Y=0.0675 $X2=0.1620 $Y2=0.0675
r6 27 11 0.0308642 $w=8.1e-08 $l=2.5e-09 $layer=N_src_drn $thickness=1e-09
+ $X=0.1450 $Y=0.0675 $X2=0.1475 $Y2=0.0675
r7 3 23 19.3796 $w=1.8e-08 $l=1.8e-08 $layer=V0LISD $X=0.2700 $Y=0.0675
+ $X2=0.2700 $Y2=0.0360
r8 2 20 19.3796 $w=1.8e-08 $l=1.8e-08 $layer=V0LISD $X=0.1620 $Y=0.0675
+ $X2=0.1620 $Y2=0.0360
r9 22 23 8.97781 $w=1.3e-08 $l=3.85e-08 $layer=M1 $thickness=3.6e-08 $X=0.2315
+ $Y=0.0360 $X2=0.2700 $Y2=0.0360
r10 21 22 10.4935 $w=1.3e-08 $l=4.5e-08 $layer=M1 $thickness=3.6e-08 $X=0.1865
+ $Y=0.0360 $X2=0.2315 $Y2=0.0360
r11 20 21 5.71315 $w=1.3e-08 $l=2.45e-08 $layer=M1 $thickness=3.6e-08 $X=0.1620
+ $Y=0.0360 $X2=0.1865 $Y2=0.0360
r12 19 20 8.97781 $w=1.3e-08 $l=3.85e-08 $layer=M1 $thickness=3.6e-08 $X=0.1235
+ $Y=0.0360 $X2=0.1620 $Y2=0.0360
r13 18 19 8.04505 $w=1.3e-08 $l=3.45e-08 $layer=M1 $thickness=3.6e-08 $X=0.0890
+ $Y=0.0360 $X2=0.1235 $Y2=0.0360
r14 17 18 3.61444 $w=1.3e-08 $l=1.55e-08 $layer=M1 $thickness=3.6e-08 $X=0.0735
+ $Y=0.0360 $X2=0.0890 $Y2=0.0360
r15 16 17 4.5472 $w=1.3e-08 $l=1.95e-08 $layer=M1 $thickness=3.6e-08 $X=0.0540
+ $Y=0.0360 $X2=0.0735 $Y2=0.0360
r16 13 16 2.68168 $w=1.3e-08 $l=1.15e-08 $layer=M1 $thickness=3.6e-08 $X=0.0425
+ $Y=0.0360 $X2=0.0540 $Y2=0.0360
r17 1 16 19.3796 $w=1.8e-08 $l=1.8e-08 $layer=V0LISD $X=0.0540 $Y=0.0675
+ $X2=0.0540 $Y2=0.0360
r18 15 14 0.0308642 $w=8.1e-08 $l=2.5e-09 $layer=N_src_drn $thickness=1e-09
+ $X=0.0710 $Y=0.0675 $X2=0.0685 $Y2=0.0675
r19 10 14 0.154321 $w=8.1e-08 $l=1.25e-08 $layer=N_src_drn $thickness=1e-09
+ $X=0.0560 $Y=0.0675 $X2=0.0685 $Y2=0.0675
r20 1 10 1e-05
.ends

.subckt PM_NAND2x1_ASAP7_75t_R%Y VSS 29 19 22 40 42 13 1 11 12 14 2 3 15 10
c1 1 VSS 0.00841902f
c2 2 VSS 0.00294319f
c3 3 VSS 0.00787406f
c4 10 VSS 0.00211307f
c5 11 VSS 0.00354207f
c6 12 VSS 0.00345751f
c7 13 VSS 0.0191991f
c8 14 VSS 0.00082208f
c9 15 VSS 0.00233706f
c10 16 VSS 0.000770033f
c11 17 VSS 0.00298135f
r1 42 41 0.0308642 $w=8.1e-08 $l=2.5e-09 $layer=P_src_drn $thickness=1e-09
+ $X=0.1250 $Y=0.2025 $X2=0.1225 $Y2=0.2025
r2 11 41 0.154321 $w=8.1e-08 $l=1.25e-08 $layer=P_src_drn $thickness=1e-09
+ $X=0.1100 $Y=0.2025 $X2=0.1225 $Y2=0.2025
r3 12 3 0.154321 $w=8.1e-08 $l=1.25e-08 $layer=P_src_drn $thickness=1e-09
+ $X=0.2015 $Y=0.2025 $X2=0.2140 $Y2=0.2025
r4 40 12 0.0308642 $w=8.1e-08 $l=2.5e-09 $layer=P_src_drn $thickness=1e-09
+ $X=0.1990 $Y=0.2025 $X2=0.2015 $Y2=0.2025
r5 1 37 19.3796 $w=1.8e-08 $l=1.8e-08 $layer=V0LISD $X=0.1080 $Y=0.2025
+ $X2=0.1080 $Y2=0.2340
r6 3 34 19.3796 $w=1.8e-08 $l=1.8e-08 $layer=V0LISD $X=0.2160 $Y=0.2025
+ $X2=0.2160 $Y2=0.2340
r7 37 38 12.0093 $w=1.3e-08 $l=5.15e-08 $layer=M1 $thickness=3.6e-08 $X=0.1080
+ $Y=0.2340 $X2=0.1595 $Y2=0.2340
r8 34 35 3.14806 $w=1.3e-08 $l=1.35e-08 $layer=M1 $thickness=3.6e-08 $X=0.2160
+ $Y=0.2340 $X2=0.2295 $Y2=0.2340
r9 33 34 2.68168 $w=1.3e-08 $l=1.15e-08 $layer=M1 $thickness=3.6e-08 $X=0.2045
+ $Y=0.2340 $X2=0.2160 $Y2=0.2340
r10 33 38 10.4935 $w=1.3e-08 $l=4.5e-08 $layer=M1 $thickness=3.6e-08 $X=0.2045
+ $Y=0.2340 $X2=0.1595 $Y2=0.2340
r11 32 35 3.14806 $w=1.3e-08 $l=1.35e-08 $layer=M1 $thickness=3.6e-08 $X=0.2430
+ $Y=0.2340 $X2=0.2295 $Y2=0.2340
r12 13 17 4.64701 $w=1.46667e-08 $l=2.7e-08 $layer=M1 $thickness=3.6e-08
+ $X=0.2700 $Y=0.2340 $X2=0.2970 $Y2=0.2340
r13 13 32 6.29612 $w=1.3e-08 $l=2.7e-08 $layer=M1 $thickness=3.6e-08 $X=0.2700
+ $Y=0.2340 $X2=0.2430 $Y2=0.2340
r14 17 31 3.36447 $w=1.71023e-08 $l=2.15e-08 $layer=M1 $thickness=3.6e-08
+ $X=0.2970 $Y=0.2340 $X2=0.2970 $Y2=0.2125
r15 30 31 9.26929 $w=1.3e-08 $l=3.98e-08 $layer=M1 $thickness=3.6e-08 $X=0.2970
+ $Y=0.1727 $X2=0.2970 $Y2=0.2125
r16 29 30 6.47102 $w=1.3e-08 $l=2.77e-08 $layer=M1 $thickness=3.6e-08 $X=0.2970
+ $Y=0.1450 $X2=0.2970 $Y2=0.1727
r17 29 28 4.6055 $w=1.3e-08 $l=1.98e-08 $layer=M1 $thickness=3.6e-08 $X=0.2970
+ $Y=0.1450 $X2=0.2970 $Y2=0.1252
r18 15 16 3.36447 $w=1.71023e-08 $l=2.15e-08 $layer=M1 $thickness=3.6e-08
+ $X=0.2970 $Y=0.0935 $X2=0.2970 $Y2=0.0720
r19 15 28 7.40377 $w=1.3e-08 $l=3.17e-08 $layer=M1 $thickness=3.6e-08 $X=0.2970
+ $Y=0.0935 $X2=0.2970 $Y2=0.1252
r20 16 27 0.915974 $w=1.70909e-08 $l=1.1e-08 $layer=M1 $thickness=3.6e-08
+ $X=0.2970 $Y=0.0720 $X2=0.2860 $Y2=0.0720
r21 26 27 4.19742 $w=1.3e-08 $l=1.8e-08 $layer=M1 $thickness=3.6e-08 $X=0.2680
+ $Y=0.0720 $X2=0.2860 $Y2=0.0720
r22 25 26 5.82974 $w=1.3e-08 $l=2.5e-08 $layer=M1 $thickness=3.6e-08 $X=0.2430
+ $Y=0.0720 $X2=0.2680 $Y2=0.0720
r23 24 25 3.14806 $w=1.3e-08 $l=1.35e-08 $layer=M1 $thickness=3.6e-08 $X=0.2295
+ $Y=0.0720 $X2=0.2430 $Y2=0.0720
r24 23 24 3.14806 $w=1.3e-08 $l=1.35e-08 $layer=M1 $thickness=3.6e-08 $X=0.2160
+ $Y=0.0720 $X2=0.2295 $Y2=0.0720
r25 14 23 2.68168 $w=1.3e-08 $l=1.15e-08 $layer=M1 $thickness=3.6e-08 $X=0.2045
+ $Y=0.0720 $X2=0.2160 $Y2=0.0720
r26 2 23 19.3796 $w=1.8e-08 $l=1.8e-08 $layer=V0LISD $X=0.2160 $Y=0.0675
+ $X2=0.2160 $Y2=0.0720
r27 22 21 0.0308642 $w=8.1e-08 $l=2.5e-09 $layer=N_src_drn $thickness=1e-09
+ $X=0.2330 $Y=0.0675 $X2=0.2305 $Y2=0.0675
r28 20 21 0.0555556 $w=8.1e-08 $l=4.5e-09 $layer=N_src_drn $thickness=1e-09
+ $X=0.2260 $Y=0.0675 $X2=0.2305 $Y2=0.0675
r29 2 20 0.148148 $w=8.1e-08 $l=1.2e-08 $layer=N_src_drn $thickness=1e-09
+ $X=0.2140 $Y=0.0675 $X2=0.2260 $Y2=0.0675
r30 10 2 0.154321 $w=8.1e-08 $l=1.25e-08 $layer=N_src_drn $thickness=1e-09
+ $X=0.2015 $Y=0.0675 $X2=0.2140 $Y2=0.0675
r31 19 10 0.0308642 $w=8.1e-08 $l=2.5e-09 $layer=N_src_drn $thickness=1e-09
+ $X=0.1990 $Y=0.0675 $X2=0.2015 $Y2=0.0675
r32 1 11 1e-05
.ends


*
.SUBCKT NAND2x1_ASAP7_75t_R VSS VDD A B Y
*
* VSS VSS
* VDD VDD
* A A
* B B
* Y Y
*
*

MM3 N_MM3_d N_MM3_g VSS VSS nmos_rvt L=2e-08 W=8.1e-08 nfin=3
MM3@2 N_MM3@2_d N_MM3@2_g VSS VSS nmos_rvt L=2e-08 W=8.1e-08 nfin=3
MM2 N_MM2_d N_MM2_g N_MM2_s VSS nmos_rvt L=2e-08 W=8.1e-08 nfin=3
MM2@2 N_MM2@2_d N_MM2@2_g N_MM2@2_s VSS nmos_rvt L=2e-08 W=8.1e-08 nfin=3
MM0 N_MM0_d N_MM3@2_g VDD VDD pmos_rvt L=2e-08 W=8.1e-08 nfin=3
MM1 N_MM1_d N_MM2_g VDD VDD pmos_rvt L=2e-08 W=8.1e-08 nfin=3


*include "NAND2x1_ASAP7_75t_R.pex.netlist.pxi"
*BEGIN of ".include "NAND2x1_ASAP7_75t_R.pex.netlist.pxi"

*ENDS
*
x_PM_NAND2x1_ASAP7_75t_R%noxref_7 VSS N_noxref_7_1
+ PM_NAND2x1_ASAP7_75t_R%noxref_7
cc_1 N_noxref_7_1 N_MM3_g 0.00243823f
cc_2 N_noxref_7_1 N_NET16_10 0.0363555f
x_PM_NAND2x1_ASAP7_75t_R%noxref_8 VSS N_noxref_8_1
+ PM_NAND2x1_ASAP7_75t_R%noxref_8
cc_3 N_noxref_8_1 N_MM3_g 0.0104487f
cc_4 N_noxref_8_1 N_NET16_10 0.000601385f
cc_5 N_noxref_8_1 N_Y_11 0.000624583f
cc_6 N_noxref_8_1 N_noxref_7_1 0.00191604f
x_PM_NAND2x1_ASAP7_75t_R%A VSS A N_MM3_g N_MM3@2_g N_A_5 N_A_1
+ PM_NAND2x1_ASAP7_75t_R%A
x_PM_NAND2x1_ASAP7_75t_R%noxref_9 VSS N_noxref_9_1
+ PM_NAND2x1_ASAP7_75t_R%noxref_9
cc_7 N_noxref_9_1 N_MM2@2_g 0.00166953f
cc_8 N_noxref_9_1 N_NET16_12 0.0364845f
cc_9 N_noxref_9_1 N_Y_10 0.000787723f
x_PM_NAND2x1_ASAP7_75t_R%noxref_10 VSS N_noxref_10_1
+ PM_NAND2x1_ASAP7_75t_R%noxref_10
cc_10 N_noxref_10_1 N_MM2@2_g 0.00919382f
cc_11 N_noxref_10_1 N_NET16_12 0.000643758f
cc_12 N_noxref_10_1 N_Y_12 0.00185021f
cc_13 N_noxref_10_1 N_noxref_9_1 0.00193489f
x_PM_NAND2x1_ASAP7_75t_R%B VSS B N_MM2_g N_MM2@2_g N_B_1 N_B_5
+ PM_NAND2x1_ASAP7_75t_R%B
cc_14 N_MM2_g N_MM3@2_g 0.00476266f
x_PM_NAND2x1_ASAP7_75t_R%NET16 VSS N_MM3_d N_MM3@2_d N_MM2_s N_MM2@2_s
+ N_NET16_1 N_NET16_2 N_NET16_13 N_NET16_10 N_NET16_11 N_NET16_3 N_NET16_12
+ PM_NAND2x1_ASAP7_75t_R%NET16
cc_15 N_NET16_1 N_MM3_g 0.00269925f
cc_16 N_NET16_2 N_MM3@2_g 0.000884991f
cc_17 N_NET16_13 N_MM3@2_g 0.00131002f
cc_18 N_NET16_13 N_A_5 0.00169345f
cc_19 N_NET16_10 N_A_1 0.00214173f
cc_20 N_NET16_11 N_MM3@2_g 0.0333808f
cc_21 N_NET16_10 N_MM3_g 0.0357728f
cc_22 N_NET16_2 N_MM2@2_g 0.000877321f
cc_23 N_NET16_3 N_MM2@2_g 0.00109033f
cc_24 N_NET16_12 N_B_1 0.00169018f
cc_25 N_NET16_11 N_MM2_g 0.0335036f
cc_26 N_NET16_12 N_MM2@2_g 0.0358182f
x_PM_NAND2x1_ASAP7_75t_R%Y VSS Y N_MM2_d N_MM2@2_d N_MM1_d N_MM0_d N_Y_13 N_Y_1
+ N_Y_11 N_Y_12 N_Y_14 N_Y_2 N_Y_3 N_Y_15 N_Y_10 PM_NAND2x1_ASAP7_75t_R%Y
cc_27 N_Y_13 N_MM3@2_g 0.000764315f
cc_28 N_Y_1 N_MM3@2_g 0.00263063f
cc_29 N_Y_11 N_A_1 0.00266984f
cc_30 N_Y_11 N_MM3_g 0.0191786f
cc_31 N_Y_11 N_MM3@2_g 0.0542245f
cc_32 N_Y_12 N_MM2_g 0.012028f
cc_33 N_Y_14 N_B_5 0.0012637f
cc_34 N_Y_13 N_B_5 0.00147115f
cc_35 N_Y_2 N_MM2@2_g 0.00189817f
cc_36 N_Y_3 N_MM2@2_g 0.00268656f
cc_37 N_Y_12 N_B_1 0.00477819f
cc_38 N_Y_15 N_B_5 0.00765093f
cc_39 N_Y_12 N_MM2@2_g 0.0212458f
cc_40 N_Y_10 N_MM2_g 0.0374567f
cc_41 N_Y_10 N_MM2@2_g 0.0707371f
cc_42 N_Y_14 N_NET16_3 0.000667538f
cc_43 N_Y_10 N_NET16_12 0.0018262f
cc_44 N_Y_15 N_NET16_3 0.000735448f
cc_45 N_Y_2 N_NET16_13 0.000818119f
cc_46 N_Y_2 N_NET16_2 0.00151578f
cc_47 N_Y_2 N_NET16_3 0.005261f
cc_48 N_Y_14 N_NET16_13 0.0102134f
*END of NAND2x1_ASAP7_75t_R.pxi
.ENDS
** Design:	NAND2x1p5_ASAP7_75t_R
* Created:	"Fri Aug 17 2018"
* Vendor:	"Mentor Graphics Corporation"
* Program:	"xACT"
* Version:	"v2017.1_34.33"
* Corner Name: typical_27
* Nominal Temperature: 25C
* Circuit Temperature: 27C
* 
* Integrated TICER reduction is not enabled.
* SHORT DELAY THRESHOLD: 2e-15
* Fill Mode: NG
* PEX REDUCE CC ABSOLUTE : 1
* PEX REDUCE CC RELATIVE : 0.01
* Delta transform mode : 344834

*include "NAND2x1p5_ASAP7_75t_R.pex.netlist.pex"
*BEGIN of ".include "NAND2x1p5_ASAP7_75t_R.pex.netlist.pex"


.subckt PM_NAND2x1p5_ASAP7_75t_R%noxref_7 VSS 1
c1 1 VSS 0.0420017f
.ends

.subckt PM_NAND2x1p5_ASAP7_75t_R%noxref_9 VSS 1
c1 1 VSS 0.00519099f
.ends

.subckt PM_NAND2x1p5_ASAP7_75t_R%noxref_8 VSS 1
c1 1 VSS 0.00534879f
.ends

.subckt PM_NAND2x1p5_ASAP7_75t_R%noxref_10 VSS 1
c1 1 VSS 0.00467014f
.ends

.subckt PM_NAND2x1p5_ASAP7_75t_R%A VSS 26 3 4 5 1 8
c1 1 VSS 0.0129976f
c2 3 VSS 0.043484f
c3 4 VSS 0.0799217f
c4 5 VSS 0.0803353f
c5 6 VSS 0.0177448f
c6 7 VSS 0.0170548f
c7 8 VSS 0.00375127f
c8 9 VSS 0.00326603f
r1 7 9 7.44771 $w=1.42162e-08 $l=3.7e-08 $layer=M1 $thickness=3.6e-08 $X=0.0270
+ $Y=0.1720 $X2=0.0270 $Y2=0.1350
r2 6 9 7.44771 $w=1.42162e-08 $l=3.7e-08 $layer=M1 $thickness=3.6e-08 $X=0.0270
+ $Y=0.0980 $X2=0.0270 $Y2=0.1350
r3 5 24 2.68099 $w=1.25e-07 $l=5e-10 $layer=LIG $thickness=5.2e-08 $X=0.1890
+ $Y=0.1350 $X2=0.1890 $Y2=0.1345
r4 4 18 2.68099 $w=1.25e-07 $l=5e-10 $layer=LIG $thickness=5.2e-08 $X=0.1350
+ $Y=0.1350 $X2=0.1350 $Y2=0.1345
r5 26 8 5.01358 $w=1.3e-08 $l=2.15e-08 $layer=M1 $thickness=3.6e-08 $X=0.0700
+ $Y=0.1350 $X2=0.0485 $Y2=0.1350
r6 8 9 3.83327 $w=1.5093e-08 $l=2.15e-08 $layer=M1 $thickness=3.6e-08 $X=0.0485
+ $Y=0.1350 $X2=0.0270 $Y2=0.1350
r7 22 24 3.5124 $w=2.166e-08 $l=1.25e-08 $layer=LIG $thickness=4.8e-08
+ $X=0.1765 $Y=0.1345 $X2=0.1890 $Y2=0.1345
r8 21 22 6.64723 $w=1.63e-08 $l=1.45e-08 $layer=LIG $thickness=4.8e-08
+ $X=0.1620 $Y=0.1345 $X2=0.1765 $Y2=0.1345
r9 19 21 6.64723 $w=1.63e-08 $l=1.45e-08 $layer=LIG $thickness=4.8e-08
+ $X=0.1475 $Y=0.1345 $X2=0.1620 $Y2=0.1345
r10 18 19 3.5124 $w=2.166e-08 $l=1.25e-08 $layer=LIG $thickness=4.8e-08
+ $X=0.1350 $Y=0.1345 $X2=0.1475 $Y2=0.1345
r11 16 18 3.5124 $w=2.166e-08 $l=1.25e-08 $layer=LIG $thickness=4.8e-08
+ $X=0.1225 $Y=0.1345 $X2=0.1350 $Y2=0.1345
r12 15 16 6.64723 $w=1.63e-08 $l=1.45e-08 $layer=LIG $thickness=4.8e-08
+ $X=0.1080 $Y=0.1345 $X2=0.1225 $Y2=0.1345
r13 14 15 6.64723 $w=1.63e-08 $l=1.45e-08 $layer=LIG $thickness=4.8e-08
+ $X=0.0935 $Y=0.1345 $X2=0.1080 $Y2=0.1345
r14 1 10 2.36633 $w=2.3e-08 $l=1e-08 $layer=LIG $thickness=4.8e-08 $X=0.0750
+ $Y=0.1345 $X2=0.0850 $Y2=0.1345
r15 1 11 2.09261 $w=2.04231e-08 $l=6.5e-09 $layer=LIG $thickness=4.8e-08
+ $X=0.0750 $Y=0.1345 $X2=0.0685 $Y2=0.1345
r16 26 1 19.3796 $w=1.8e-08 $l=1.8e-08 $layer=V0LIG $X=0.0700 $Y=0.1350
+ $X2=0.0750 $Y2=0.1345
r17 3 10 1.73446 $w=1.505e-07 $l=4.03113e-09 $layer=LIG $thickness=5.3e-08
+ $X=0.0810 $Y=0.1350 $X2=0.0850 $Y2=0.1345
r18 3 11 1.46074 $w=1.8486e-07 $l=1.251e-08 $layer=LIG $thickness=5.44e-08
+ $X=0.0810 $Y=0.1350 $X2=0.0685 $Y2=0.1345
r19 3 14 1.46074 $w=1.8486e-07 $l=1.251e-08 $layer=LIG $thickness=5.44e-08
+ $X=0.0810 $Y=0.1350 $X2=0.0935 $Y2=0.1345
.ends

.subckt PM_NAND2x1p5_ASAP7_75t_R%NET16 VSS 17 20 35 36 38 41 1 11 12 13 14 3 15
+ 2
c1 1 VSS 0.00999435f
c2 2 VSS 0.00749886f
c3 3 VSS 0.00285341f
c4 11 VSS 0.00440823f
c5 12 VSS 0.00319671f
c6 13 VSS 0.00208068f
c7 14 VSS 0.0121628f
c8 15 VSS 0.00163327f
r1 41 40 0.0308642 $w=8.1e-08 $l=2.5e-09 $layer=N_src_drn $thickness=1e-09
+ $X=0.3410 $Y=0.0675 $X2=0.3385 $Y2=0.0675
r2 39 40 0.0555556 $w=8.1e-08 $l=4.5e-09 $layer=N_src_drn $thickness=1e-09
+ $X=0.3340 $Y=0.0675 $X2=0.3385 $Y2=0.0675
r3 3 39 0.148148 $w=8.1e-08 $l=1.2e-08 $layer=N_src_drn $thickness=1e-09
+ $X=0.3220 $Y=0.0675 $X2=0.3340 $Y2=0.0675
r4 13 3 0.154321 $w=8.1e-08 $l=1.25e-08 $layer=N_src_drn $thickness=1e-09
+ $X=0.3095 $Y=0.0675 $X2=0.3220 $Y2=0.0675
r5 38 13 0.0308642 $w=8.1e-08 $l=2.5e-09 $layer=N_src_drn $thickness=1e-09
+ $X=0.3070 $Y=0.0675 $X2=0.3095 $Y2=0.0675
r6 3 31 19.3796 $w=1.8e-08 $l=1.8e-08 $layer=V0LISD $X=0.3240 $Y=0.0675
+ $X2=0.3240 $Y2=0.0720
r7 36 34 0.0308642 $w=8.1e-08 $l=2.5e-09 $layer=N_src_drn $thickness=1e-09
+ $X=0.2330 $Y=0.0675 $X2=0.2305 $Y2=0.0675
r8 2 34 0.179012 $w=8.1e-08 $l=1.45e-08 $layer=N_src_drn $thickness=1e-09
+ $X=0.2160 $Y=0.0675 $X2=0.2305 $Y2=0.0675
r9 12 2 0.179012 $w=8.1e-08 $l=1.45e-08 $layer=N_src_drn $thickness=1e-09
+ $X=0.2015 $Y=0.0675 $X2=0.2160 $Y2=0.0675
r10 35 12 0.0308642 $w=8.1e-08 $l=2.5e-09 $layer=N_src_drn $thickness=1e-09
+ $X=0.1990 $Y=0.0675 $X2=0.2015 $Y2=0.0675
r11 30 31 8.39483 $w=1.3e-08 $l=3.6e-08 $layer=M1 $thickness=3.6e-08 $X=0.2880
+ $Y=0.0720 $X2=0.3240 $Y2=0.0720
r12 29 30 6.7625 $w=1.3e-08 $l=2.9e-08 $layer=M1 $thickness=3.6e-08 $X=0.2590
+ $Y=0.0720 $X2=0.2880 $Y2=0.0720
r13 28 29 4.19742 $w=1.3e-08 $l=1.8e-08 $layer=M1 $thickness=3.6e-08 $X=0.2410
+ $Y=0.0720 $X2=0.2590 $Y2=0.0720
r14 27 28 5.82974 $w=1.3e-08 $l=2.5e-08 $layer=M1 $thickness=3.6e-08 $X=0.2160
+ $Y=0.0720 $X2=0.2410 $Y2=0.0720
r15 15 27 2.68168 $w=1.3e-08 $l=1.15e-08 $layer=M1 $thickness=3.6e-08 $X=0.2045
+ $Y=0.0720 $X2=0.2160 $Y2=0.0720
r16 2 26 19.3796 $w=1.8e-08 $l=1.8e-08 $layer=V0LISD $X=0.2160 $Y=0.0675
+ $X2=0.2160 $Y2=0.0360
r17 2 27 19.3796 $w=1.8e-08 $l=1.8e-08 $layer=V0LISD $X=0.2160 $Y=0.0675
+ $X2=0.2160 $Y2=0.0720
r18 25 26 2.68168 $w=1.3e-08 $l=1.15e-08 $layer=M1 $thickness=3.6e-08 $X=0.2045
+ $Y=0.0360 $X2=0.2160 $Y2=0.0360
r19 24 25 7.34548 $w=1.3e-08 $l=3.15e-08 $layer=M1 $thickness=3.6e-08 $X=0.1730
+ $Y=0.0360 $X2=0.2045 $Y2=0.0360
r20 23 24 8.86121 $w=1.3e-08 $l=3.8e-08 $layer=M1 $thickness=3.6e-08 $X=0.1350
+ $Y=0.0360 $X2=0.1730 $Y2=0.0360
r21 22 23 3.14806 $w=1.3e-08 $l=1.35e-08 $layer=M1 $thickness=3.6e-08 $X=0.1215
+ $Y=0.0360 $X2=0.1350 $Y2=0.0360
r22 21 22 3.14806 $w=1.3e-08 $l=1.35e-08 $layer=M1 $thickness=3.6e-08 $X=0.1080
+ $Y=0.0360 $X2=0.1215 $Y2=0.0360
r23 14 21 2.68168 $w=1.3e-08 $l=1.15e-08 $layer=M1 $thickness=3.6e-08 $X=0.0965
+ $Y=0.0360 $X2=0.1080 $Y2=0.0360
r24 1 21 19.3796 $w=1.8e-08 $l=1.8e-08 $layer=V0LISD $X=0.1080 $Y=0.0675
+ $X2=0.1080 $Y2=0.0360
r25 20 19 0.0308642 $w=8.1e-08 $l=2.5e-09 $layer=N_src_drn $thickness=1e-09
+ $X=0.1250 $Y=0.0675 $X2=0.1225 $Y2=0.0675
r26 1 19 0.154321 $w=8.1e-08 $l=1.25e-08 $layer=N_src_drn $thickness=1e-09
+ $X=0.1100 $Y=0.0675 $X2=0.1225 $Y2=0.0675
r27 16 1 0.148148 $w=8.1e-08 $l=1.2e-08 $layer=N_src_drn $thickness=1e-09
+ $X=0.0980 $Y=0.0675 $X2=0.1100 $Y2=0.0675
r28 11 16 0.0555556 $w=8.1e-08 $l=4.5e-09 $layer=N_src_drn $thickness=1e-09
+ $X=0.0935 $Y=0.0675 $X2=0.0980 $Y2=0.0675
r29 17 11 0.0308642 $w=8.1e-08 $l=2.5e-09 $layer=N_src_drn $thickness=1e-09
+ $X=0.0910 $Y=0.0675 $X2=0.0935 $Y2=0.0675
.ends

.subckt PM_NAND2x1p5_ASAP7_75t_R%B VSS 30 3 4 5 7 9 8 6 1
c1 1 VSS 0.0139496f
c2 3 VSS 0.0467974f
c3 4 VSS 0.0463455f
c4 5 VSS 0.00940555f
c5 6 VSS 0.00576779f
c6 7 VSS 0.00578127f
c7 8 VSS 0.00631165f
c8 9 VSS 0.00432627f
r1 7 31 6.91198 $w=1.35906e-08 $l=3.18e-08 $layer=M1 $thickness=3.6e-08
+ $X=0.1350 $Y=0.1720 $X2=0.1350 $Y2=0.1402
r2 6 9 5.73148 $w=1.38716e-08 $l=2.72e-08 $layer=M1 $thickness=3.6e-08
+ $X=0.1350 $Y=0.1035 $X2=0.1350 $Y2=0.1307
r3 30 31 0.433689 $w=1.8e-08 $l=4.2e-09 $layer=M1 $thickness=3.6e-08 $X=0.1350
+ $Y=0.1360 $X2=0.1350 $Y2=0.1402
r4 30 9 0.535733 $w=1.8e-08 $l=5.3e-09 $layer=M1 $thickness=3.6e-08 $X=0.1350
+ $Y=0.1360 $X2=0.1350 $Y2=0.1307
r5 5 24 2.92627 $w=1.245e-07 $l=0 $layer=LIG $thickness=5.2e-08 $X=0.3510
+ $Y=0.1350 $X2=0.3510 $Y2=0.1350
r6 4 18 2.92627 $w=1.245e-07 $l=0 $layer=LIG $thickness=5.2e-08 $X=0.2970
+ $Y=0.1350 $X2=0.2970 $Y2=0.1350
r7 30 28 6.81353 $w=1.01579e-08 $l=3.80132e-08 $layer=M1 $thickness=3.6e-08
+ $X=0.1350 $Y=0.1360 $X2=0.1730 $Y2=0.1350
r8 8 26 5.82974 $w=1.3e-08 $l=2.5e-08 $layer=M1 $thickness=3.6e-08 $X=0.2180
+ $Y=0.1350 $X2=0.2430 $Y2=0.1350
r9 8 28 10.4935 $w=1.3e-08 $l=4.5e-08 $layer=M1 $thickness=3.6e-08 $X=0.2180
+ $Y=0.1350 $X2=0.1730 $Y2=0.1350
r10 22 24 4.08841 $w=2.066e-08 $l=1.25e-08 $layer=LIG $thickness=4.8e-08
+ $X=0.3385 $Y=0.1350 $X2=0.3510 $Y2=0.1350
r11 21 22 8.56549 $w=1.53e-08 $l=1.45e-08 $layer=LIG $thickness=4.8e-08
+ $X=0.3240 $Y=0.1350 $X2=0.3385 $Y2=0.1350
r12 19 21 8.56549 $w=1.53e-08 $l=1.45e-08 $layer=LIG $thickness=4.8e-08
+ $X=0.3095 $Y=0.1350 $X2=0.3240 $Y2=0.1350
r13 18 19 4.08841 $w=2.066e-08 $l=1.25e-08 $layer=LIG $thickness=4.8e-08
+ $X=0.2970 $Y=0.1350 $X2=0.3095 $Y2=0.1350
r14 16 18 4.08841 $w=2.066e-08 $l=1.25e-08 $layer=LIG $thickness=4.8e-08
+ $X=0.2845 $Y=0.1350 $X2=0.2970 $Y2=0.1350
r15 15 16 8.56549 $w=1.53e-08 $l=1.45e-08 $layer=LIG $thickness=4.8e-08
+ $X=0.2700 $Y=0.1350 $X2=0.2845 $Y2=0.1350
r16 14 15 8.56549 $w=1.53e-08 $l=1.45e-08 $layer=LIG $thickness=4.8e-08
+ $X=0.2555 $Y=0.1350 $X2=0.2700 $Y2=0.1350
r17 12 14 1.60739 $w=1.64167e-08 $l=3e-09 $layer=LIG $thickness=4.8e-08
+ $X=0.2525 $Y=0.1350 $X2=0.2555 $Y2=0.1350
r18 11 12 2.48102 $w=2.2e-08 $l=9.5e-09 $layer=LIG $thickness=4.8e-08 $X=0.2430
+ $Y=0.1350 $X2=0.2525 $Y2=0.1350
r19 11 26 19.3796 $w=1.8e-08 $l=1.8e-08 $layer=V0LIG $X=0.2430 $Y=0.1350
+ $X2=0.2430 $Y2=0.1350
r20 1 11 2.48102 $w=2.2e-08 $l=9.5e-09 $layer=LIG $thickness=4.8e-08 $X=0.2335
+ $Y=0.1350 $X2=0.2430 $Y2=0.1350
r21 1 13 0.425942 $w=1.865e-08 $l=1e-09 $layer=LIG $thickness=4.8e-08 $X=0.2335
+ $Y=0.1350 $X2=0.2325 $Y2=0.1350
r22 3 11 2.66511 $w=1.29895e-07 $l=0 $layer=LIG $thickness=5.22105e-08
+ $X=0.2430 $Y=0.1350 $X2=0.2430 $Y2=0.1350
r23 3 13 0.610027 $w=2.16919e-07 $l=1.05e-08 $layer=Gate_1
+ $thickness=5.5619e-08 $X=0.2430 $Y=0.1350 $X2=0.2325 $Y2=0.1350
r24 3 14 1.79147 $w=1.8466e-07 $l=1.25e-08 $layer=LIG $thickness=5.44e-08
+ $X=0.2430 $Y=0.1350 $X2=0.2555 $Y2=0.1350
.ends

.subckt PM_NAND2x1p5_ASAP7_75t_R%Y VSS 39 27 30 43 55 58 59 61 2 21 1 18 19 3
+ 17 23 5 20 4 16 22
c1 1 VSS 0.00795189f
c2 2 VSS 0.00908914f
c3 3 VSS 0.00452356f
c4 4 VSS 0.00780471f
c5 5 VSS 0.00513475f
c6 16 VSS 0.00218936f
c7 17 VSS 0.00232217f
c8 18 VSS 0.00349782f
c9 19 VSS 0.00415321f
c10 20 VSS 0.0034756f
c11 21 VSS 0.0294951f
c12 22 VSS 0.0113003f
c13 23 VSS 0.00346042f
c14 24 VSS 0.00283669f
c15 25 VSS 0.00297196f
r1 61 60 0.0308642 $w=8.1e-08 $l=2.5e-09 $layer=P_src_drn $thickness=1e-09
+ $X=0.1250 $Y=0.2025 $X2=0.1225 $Y2=0.2025
r2 18 60 0.154321 $w=8.1e-08 $l=1.25e-08 $layer=P_src_drn $thickness=1e-09
+ $X=0.1100 $Y=0.2025 $X2=0.1225 $Y2=0.2025
r3 59 57 0.0462963 $w=5.4e-08 $l=2.5e-09 $layer=P_src_drn $thickness=1e-09
+ $X=0.2330 $Y=0.2160 $X2=0.2305 $Y2=0.2160
r4 2 57 0.268519 $w=5.4e-08 $l=1.45e-08 $layer=P_src_drn $thickness=1e-09
+ $X=0.2160 $Y=0.2160 $X2=0.2305 $Y2=0.2160
r5 19 2 0.268519 $w=5.4e-08 $l=1.45e-08 $layer=P_src_drn $thickness=1e-09
+ $X=0.2015 $Y=0.2160 $X2=0.2160 $Y2=0.2160
r6 58 19 0.0462963 $w=5.4e-08 $l=2.5e-09 $layer=P_src_drn $thickness=1e-09
+ $X=0.1990 $Y=0.2160 $X2=0.2015 $Y2=0.2160
r7 20 4 0.154321 $w=8.1e-08 $l=1.25e-08 $layer=P_src_drn $thickness=1e-09
+ $X=0.3095 $Y=0.2025 $X2=0.3220 $Y2=0.2025
r8 55 20 0.0308642 $w=8.1e-08 $l=2.5e-09 $layer=P_src_drn $thickness=1e-09
+ $X=0.3070 $Y=0.2025 $X2=0.3095 $Y2=0.2025
r9 1 52 19.3796 $w=1.8e-08 $l=1.8e-08 $layer=V0LISD $X=0.1080 $Y=0.2025
+ $X2=0.1080 $Y2=0.2340
r10 2 48 19.3796 $w=1.8e-08 $l=1.8e-08 $layer=V0LISD $X=0.2160 $Y=0.2160
+ $X2=0.2160 $Y2=0.2340
r11 4 45 19.3796 $w=1.8e-08 $l=1.8e-08 $layer=V0LISD $X=0.3240 $Y=0.2025
+ $X2=0.3240 $Y2=0.2340
r12 52 53 3.14806 $w=1.3e-08 $l=1.35e-08 $layer=M1 $thickness=3.6e-08 $X=0.1080
+ $Y=0.2340 $X2=0.1215 $Y2=0.2340
r13 50 53 3.14806 $w=1.3e-08 $l=1.35e-08 $layer=M1 $thickness=3.6e-08 $X=0.1350
+ $Y=0.2340 $X2=0.1215 $Y2=0.2340
r14 48 49 5.82974 $w=1.3e-08 $l=2.5e-08 $layer=M1 $thickness=3.6e-08 $X=0.2160
+ $Y=0.2340 $X2=0.2410 $Y2=0.2340
r15 47 48 9.44419 $w=1.3e-08 $l=4.05e-08 $layer=M1 $thickness=3.6e-08 $X=0.1755
+ $Y=0.2340 $X2=0.2160 $Y2=0.2340
r16 47 50 9.44419 $w=1.3e-08 $l=4.05e-08 $layer=M1 $thickness=3.6e-08 $X=0.1755
+ $Y=0.2340 $X2=0.1350 $Y2=0.2340
r17 45 46 2.68168 $w=1.3e-08 $l=1.15e-08 $layer=M1 $thickness=3.6e-08 $X=0.3240
+ $Y=0.2340 $X2=0.3355 $Y2=0.2340
r18 44 45 8.86121 $w=1.3e-08 $l=3.8e-08 $layer=M1 $thickness=3.6e-08 $X=0.2860
+ $Y=0.2340 $X2=0.3240 $Y2=0.2340
r19 44 49 10.4935 $w=1.3e-08 $l=4.5e-08 $layer=M1 $thickness=3.6e-08 $X=0.2860
+ $Y=0.2340 $X2=0.2410 $Y2=0.2340
r20 21 25 7.2121 $w=1.41842e-08 $l=3.8e-08 $layer=M1 $thickness=3.6e-08
+ $X=0.3670 $Y=0.2340 $X2=0.4050 $Y2=0.2340
r21 21 46 7.34548 $w=1.3e-08 $l=3.15e-08 $layer=M1 $thickness=3.6e-08 $X=0.3670
+ $Y=0.2340 $X2=0.3355 $Y2=0.2340
r22 25 41 3.36447 $w=1.71023e-08 $l=2.15e-08 $layer=M1 $thickness=3.6e-08
+ $X=0.4050 $Y=0.2340 $X2=0.4050 $Y2=0.2125
r23 17 5 0.154321 $w=8.1e-08 $l=1.25e-08 $layer=N_src_drn $thickness=1e-09
+ $X=0.3635 $Y=0.0675 $X2=0.3760 $Y2=0.0675
r24 43 17 0.0308642 $w=8.1e-08 $l=2.5e-09 $layer=N_src_drn $thickness=1e-09
+ $X=0.3610 $Y=0.0675 $X2=0.3635 $Y2=0.0675
r25 40 41 9.26929 $w=1.3e-08 $l=3.98e-08 $layer=M1 $thickness=3.6e-08 $X=0.4050
+ $Y=0.1727 $X2=0.4050 $Y2=0.2125
r26 39 40 6.47102 $w=1.3e-08 $l=2.77e-08 $layer=M1 $thickness=3.6e-08 $X=0.4050
+ $Y=0.1450 $X2=0.4050 $Y2=0.1727
r27 39 38 0.174892 $w=1.3e-08 $l=8e-10 $layer=M1 $thickness=3.6e-08 $X=0.4050
+ $Y=0.1450 $X2=0.4050 $Y2=0.1442
r28 37 38 2.15701 $w=1.3e-08 $l=9.2e-09 $layer=M1 $thickness=3.6e-08 $X=0.4050
+ $Y=0.1350 $X2=0.4050 $Y2=0.1442
r29 36 37 7.34548 $w=1.3e-08 $l=3.15e-08 $layer=M1 $thickness=3.6e-08 $X=0.4050
+ $Y=0.1035 $X2=0.4050 $Y2=0.1350
r30 35 36 7.34548 $w=1.3e-08 $l=3.15e-08 $layer=M1 $thickness=3.6e-08 $X=0.4050
+ $Y=0.0720 $X2=0.4050 $Y2=0.1035
r31 23 24 2.5483 $w=1.79e-08 $l=1.8e-08 $layer=M1 $thickness=3.6e-08 $X=0.4050
+ $Y=0.0540 $X2=0.4050 $Y2=0.0360
r32 23 35 4.19742 $w=1.3e-08 $l=1.8e-08 $layer=M1 $thickness=3.6e-08 $X=0.4050
+ $Y=0.0540 $X2=0.4050 $Y2=0.0720
r33 5 33 19.3796 $w=1.8e-08 $l=1.8e-08 $layer=V0LISD $X=0.3780 $Y=0.0675
+ $X2=0.3780 $Y2=0.0360
r34 24 34 1.49895 $w=1.63333e-08 $l=1.35e-08 $layer=M1 $thickness=3.6e-08
+ $X=0.4050 $Y=0.0360 $X2=0.3915 $Y2=0.0360
r35 33 34 3.14806 $w=1.3e-08 $l=1.35e-08 $layer=M1 $thickness=3.6e-08 $X=0.3780
+ $Y=0.0360 $X2=0.3915 $Y2=0.0360
r36 32 33 5.71315 $w=1.3e-08 $l=2.45e-08 $layer=M1 $thickness=3.6e-08 $X=0.3535
+ $Y=0.0360 $X2=0.3780 $Y2=0.0360
r37 31 32 10.4935 $w=1.3e-08 $l=4.5e-08 $layer=M1 $thickness=3.6e-08 $X=0.3085
+ $Y=0.0360 $X2=0.3535 $Y2=0.0360
r38 22 31 8.97781 $w=1.3e-08 $l=3.85e-08 $layer=M1 $thickness=3.6e-08 $X=0.2700
+ $Y=0.0360 $X2=0.3085 $Y2=0.0360
r39 3 22 19.3796 $w=1.8e-08 $l=1.8e-08 $layer=V0LISD $X=0.2700 $Y=0.0675
+ $X2=0.2700 $Y2=0.0360
r40 30 29 0.0308642 $w=8.1e-08 $l=2.5e-09 $layer=N_src_drn $thickness=1e-09
+ $X=0.2870 $Y=0.0675 $X2=0.2845 $Y2=0.0675
r41 3 29 0.154321 $w=8.1e-08 $l=1.25e-08 $layer=N_src_drn $thickness=1e-09
+ $X=0.2720 $Y=0.0675 $X2=0.2845 $Y2=0.0675
r42 26 3 0.148148 $w=8.1e-08 $l=1.2e-08 $layer=N_src_drn $thickness=1e-09
+ $X=0.2600 $Y=0.0675 $X2=0.2720 $Y2=0.0675
r43 16 26 0.0555556 $w=8.1e-08 $l=4.5e-09 $layer=N_src_drn $thickness=1e-09
+ $X=0.2555 $Y=0.0675 $X2=0.2600 $Y2=0.0675
r44 27 16 0.0308642 $w=8.1e-08 $l=2.5e-09 $layer=N_src_drn $thickness=1e-09
+ $X=0.2530 $Y=0.0675 $X2=0.2555 $Y2=0.0675
r45 1 18 1e-05
.ends


*
.SUBCKT NAND2x1p5_ASAP7_75t_R VSS VDD A B Y
*
* VSS VSS
* VDD VDD
* A A
* B B
* Y Y
*
*

MM3 N_MM3_d N_MM3_g VSS VSS nmos_rvt L=2e-08 W=8.1e-08 nfin=3
MM3@3 N_MM3@3_d N_MM3@3_g VSS VSS nmos_rvt L=2e-08 W=8.1e-08 nfin=3
MM3@2 N_MM3@2_d N_MM3@2_g VSS VSS nmos_rvt L=2e-08 W=8.1e-08 nfin=3
MM2 N_MM2_d N_MM2_g N_MM2_s VSS nmos_rvt L=2e-08 W=8.1e-08 nfin=3
MM2@3 N_MM2@3_d N_MM2@3_g N_MM2@3_s VSS nmos_rvt L=2e-08 W=8.1e-08 nfin=3
MM2@2 N_MM2@2_d N_MM2@2_g N_MM2@2_s VSS nmos_rvt L=2e-08 W=8.1e-08 nfin=3
MM0 N_MM0_d N_MM3@3_g VDD VDD pmos_rvt L=2e-08 W=8.1e-08 nfin=3
MM0@2 N_MM0@2_d N_MM3@2_g VDD VDD pmos_rvt L=2e-08 W=5.4e-08 nfin=2
MM1 N_MM1_d N_MM2_g VDD VDD pmos_rvt L=2e-08 W=5.4e-08 nfin=2
MM1@2 N_MM1@2_d N_MM2@3_g VDD VDD pmos_rvt L=2e-08 W=8.1e-08 nfin=3


*include "NAND2x1p5_ASAP7_75t_R.pex.netlist.pxi"
*BEGIN of ".include "NAND2x1p5_ASAP7_75t_R.pex.netlist.pxi"

*ENDS
*
x_PM_NAND2x1p5_ASAP7_75t_R%noxref_7 VSS N_noxref_7_1
+ PM_NAND2x1p5_ASAP7_75t_R%noxref_7